Questionable use of curly braces in ".model tzx5v1b d is=5u cjo=100p bv=5 ibv=5m tupe={zener}"
    Error: undefined symbol in: "[zener]"
Circuit: * H:\E-design 344\Draft1.asc

Questionable use of curly braces in "b§e_abmgate yint 0 v={if(v(a)>{{vthresh}}&v(b)>{{vthresh}},{{vdd}},{{vss}})}"
    Error: undefined symbol in: "if([v](a)>((vthresh))&v(b)>((vthresh)),((vdd)),((vss)))"
Questionable use of curly braces in "b§e_abmgate yint 0 v={if(v(a)>{{vthresh}}|v(b)>{{vthresh}}|v(c)>{{vthresh}},{{vdd}},{{vss}})}"
    Error: undefined symbol in: "if([v](a)>((vthresh))|v(b)>((vthresh))|v(c)>((vthresh)),((vdd)),((vss)))"
Questionable use of curly braces in "b§e_abmgate yint 0 v={if(v(a)>{{vthresh}},{{vdd}},{{vss}})}"
    Error: undefined symbol in: "if([v](a)>((vthresh)),((vdd)),((vss)))"
Direct Newton iteration failed to find .op point.  (Use ".option noopiter" to skip.)
Starting Gmin stepping
Gmin = 10
Gmin = 1.07374
Gmin = 0.115292
Gmin = 0.0123794
Gmin = 0.00132923
Gmin = 0.000142725
Gmin = 1.5325e-005
Gmin = 1.6455e-006
Gmin = 1.76685e-007
Gmin = 1.89714e-008
Gmin = 2.03704e-009
Gmin = 2.18725e-010
Gmin = 2.34854e-011
Gmin = 2.52173e-012
Gmin = 2.70769e-013
Gmin = 0
Gmin stepping succeeded in finding the operating point.

Ignoring empty pin current: Ix(u2:fb)
Ignoring empty pin current: Ix(u2:fb)

Date: Sun Aug 11 11:41:38 2019
Total elapsed time: 0.171 seconds.

tnom = 27
temp = 27
method = modified trap
totiter = 1308
traniter = 943
tranpoints = 324
accept = 237
rejected = 87
matrix size = 130
fillins = 108
solver = Normal
Thread vector: 18.7/12.4[2] 6.6/3.8[2] 6.6/4.4[2] 0.5/0.9[1]  2592/500
Matrix Compiler1: 12.23 KB object code size  3.0/1.5/[0.8]
Matrix Compiler2: 11.04 KB object code size  1.9/2.2/[0.9]


