Circuit: * H:\E-design 344\LTspice\Draft5.asc

Per .tran options, skipping operating point for transient analysis.
Changing Tseed to 1e-008
Changing Tseed to 1e-010
Changing Tseed to 1e-007
Changing Tseed to 1e-011
Changing Tseed to 1e-006
Changing Tseed to 1e-012
Changing Tseed to 1e-005
Changing Tseed to 1e-013
Changing Tseed to 0.0001
Changing Tseed to 1e-014
Changing Tseed to 0.001
Changing Tseed to 1e-015
Heightened Def Con from 0 Changing Tseed to 1e-009
Changing Tseed to 1e-011
Changing Tseed to 1e-008
Changing Tseed to 1e-012
Changing Tseed to 1e-007
Changing Tseed to 1e-013
Changing Tseed to 1e-006
Changing Tseed to 1e-014
Changing Tseed to 1e-005
Changing Tseed to 1e-015
Changing Tseed to 0.0001
Changing Tseed to 1e-016
+Changing Tseed to 1e-009
Changing Tseed to 1e-011
Changing Tseed to 1e-008
Changing Tseed to 1e-012
Changing Tseed to 1e-007
Changing Tseed to 1e-013
Changing Tseed to 1e-006
Changing Tseed to 1e-014
Changing Tseed to 1e-005
Changing Tseed to 1e-015
Changing Tseed to 0.0001
Changing Tseed to 1e-016
+Changing Tseed to 1e-009
Changing Tseed to 1e-011
Changing Tseed to 1e-008
Changing Tseed to 1e-012
Changing Tseed to 1e-007
Changing Tseed to 1e-013
Changing Tseed to 1e-006
Changing Tseed to 1e-014
Changing Tseed to 1e-005
Changing Tseed to 1e-015
Changing Tseed to 0.0001
Changing Tseed to 1e-016
+Changing Tseed to 1e-009
Changing Tseed to 1e-011
Changing Tseed to 1e-008
Changing Tseed to 1e-012
Changing Tseed to 1e-007
Changing Tseed to 1e-013
Changing Tseed to 1e-006
Changing Tseed to 1e-014
Changing Tseed to 1e-005
Changing Tseed to 1e-015
Changing Tseed to 0.0001
Changing Tseed to 1e-016
+Changing Tseed to 1e-009
Changing Tseed to 1e-011
Changing Tseed to 1e-008
Changing Tseed to 1e-012
Changing Tseed to 1e-007
Changing Tseed to 1e-013
Changing Tseed to 1e-006
Changing Tseed to 1e-014
Changing Tseed to 1e-005
Changing Tseed to 1e-015
Changing Tseed to 0.0001
Changing Tseed to 1e-016
+Changing Tseed to 1e-009
Changing Tseed to 1e-011
Changing Tseed to 1e-008
Changing Tseed to 1e-012
Changing Tseed to 1e-007
Changing Tseed to 1e-013
Changing Tseed to 1e-006
Changing Tseed to 1e-014
Changing Tseed to 1e-005
Changing Tseed to 1e-015
Changing Tseed to 0.0001
Changing Tseed to 1e-016
+Changing Tseed to 1e-009
Changing Tseed to 1e-011
Changing Tseed to 1e-008
Changing Tseed to 1e-012
Changing Tseed to 1e-007
Changing Tseed to 1e-013
Changing Tseed to 1e-006
Changing Tseed to 1e-014
Changing Tseed to 1e-005
Changing Tseed to 1e-015
Changing Tseed to 0.0001
Changing Tseed to 1e-016
+Changing Tseed to 1e-009
Changing Tseed to 1e-011
Changing Tseed to 1e-008
Changing Tseed to 1e-012
Changing Tseed to 1e-007
Changing Tseed to 1e-013
Changing Tseed to 1e-006
Changing Tseed to 1e-014
Changing Tseed to 1e-005
Changing Tseed to 1e-015
Changing Tseed to 0.0001
Changing Tseed to 1e-016
+Changing Tseed to 1e-009
Changing Tseed to 1e-011
Changing Tseed to 1e-008
Changing Tseed to 1e-012
Changing Tseed to 1e-007
Changing Tseed to 1e-013
Changing Tseed to 1e-006
Changing Tseed to 1e-014
Changing Tseed to 1e-005
Changing Tseed to 1e-015
Changing Tseed to 0.0001
Changing Tseed to 1e-016
+Changing Tseed to 1e-009
Changing Tseed to 1e-011
Changing Tseed to 1e-008
Changing Tseed to 1e-012
Changing Tseed to 1e-007
Changing Tseed to 1e-013
Changing Tseed to 1e-006
Changing Tseed to 1e-014
Changing Tseed to 1e-005
Changing Tseed to 1e-015
Changing Tseed to 0.0001
Changing Tseed to 1e-016
+Changing Tseed to 1e-009
Changing Tseed to 1e-011
Changing Tseed to 1e-008
Changing Tseed to 1e-012
Changing Tseed to 1e-007
Changing Tseed to 1e-013
Changing Tseed to 1e-006
Changing Tseed to 1e-014
Changing Tseed to 1e-005
Changing Tseed to 1e-015
Changing Tseed to 0.0001
Changing Tseed to 1e-016
+Changing Tseed to 1e-009
Changing Tseed to 1e-011
Changing Tseed to 1e-008
Changing Tseed to 1e-012
Changing Tseed to 1e-007
Changing Tseed to 1e-013
Changing Tseed to 1e-006
Changing Tseed to 1e-014
Changing Tseed to 1e-005
Changing Tseed to 1e-015
Changing Tseed to 0.0001
Changing Tseed to 1e-016
+Changing Tseed to 1e-009
Changing Tseed to 1e-011
Changing Tseed to 1e-008
Changing Tseed to 1e-012
Changing Tseed to 1e-007
Changing Tseed to 1e-013
Changing Tseed to 1e-006
Changing Tseed to 1e-014
Changing Tseed to 1e-005
Changing Tseed to 1e-015
Changing Tseed to 0.0001
Changing Tseed to 1e-016
+Changing Tseed to 1e-009
Changing Tseed to 1e-011
Changing Tseed to 1e-008
Changing Tseed to 1e-012
Changing Tseed to 1e-007
Changing Tseed to 1e-013
Changing Tseed to 1e-006
Changing Tseed to 1e-014
Changing Tseed to 1e-005
Changing Tseed to 1e-015
Changing Tseed to 0.0001
Changing Tseed to 1e-016
+Changing Tseed to 1e-009
Changing Tseed to 1e-011
Changing Tseed to 1e-008
Changing Tseed to 1e-012
Changing Tseed to 1e-007
Changing Tseed to 1e-013
Changing Tseed to 1e-006
Changing Tseed to 1e-014
Changing Tseed to 1e-005
Changing Tseed to 1e-015
Changing Tseed to 0.0001
Changing Tseed to 1e-016
+Changing Tseed to 1e-009
Changing Tseed to 1e-011
Changing Tseed to 1e-008
Changing Tseed to 1e-012
Changing Tseed to 1e-007
Changing Tseed to 1e-013
Changing Tseed to 1e-006
Changing Tseed to 1e-014
Changing Tseed to 1e-005
Changing Tseed to 1e-015
Changing Tseed to 0.0001
Changing Tseed to 1e-016
+Changing Tseed to 1e-009
Changing Tseed to 1e-011
Changing Tseed to 1e-008
Changing Tseed to 1e-012
Changing Tseed to 1e-007
Changing Tseed to 1e-013
Changing Tseed to 1e-006
Changing Tseed to 1e-014
Changing Tseed to 1e-005
Changing Tseed to 1e-015
Changing Tseed to 0.0001
Changing Tseed to 1e-016
+Changing Tseed to 1e-009
Changing Tseed to 1e-011
Changing Tseed to 1e-008
Changing Tseed to 1e-012
Changing Tseed to 1e-007
Changing Tseed to 1e-013
Changing Tseed to 1e-006
Changing Tseed to 1e-014
Changing Tseed to 1e-005
Changing Tseed to 1e-015
Changing Tseed to 0.0001
Changing Tseed to 1e-016
+Changing Tseed to 1e-009
to 1.125e-009
Heightened Def Con from 0.00120597 to 0.00120597
Heightened Def Con from 0.00778907 to 0.00778907
Heightened Def Con from 0.00816914 to 0.00816914
Heightened Def Con from 0.00847123 to 0.00847123
Heightened Def Con from 0.0084724 to 0.0084724
Heightened Def Con from 0.00847252 to 0.00847252
Heightened Def Con from 0.00847298 to 0.00847298
Heightened Def Con from 0.00847308 to 0.00847308
Heightened Def Con from 0.0084734 to 0.0084734
Heightened Def Con from 0.00847435 to 0.00847435
Heightened Def Con from 0.00847472 to 0.00847472
Heightened Def Con from 0.00858835 to 0.00858836
Heightened Def Con from 0.00858878 to 0.00858878
Heightened Def Con from 0.00858905 to 0.00858905
Heightened Def Con from 0.00858952 to 0.00858952
Heightened Def Con from 0.00858993 to 0.00858993
Heightened Def Con from 0.00859011 to 0.00859012
Heightened Def Con from 0.00859017 to 0.00859017
Heightened Def Con from 0.00859023 to 0.00859023
Heightened Def Con from 0.00859023 to 0.00859023
Heightened Def Con from 0.00859029 to 0.00859029
Heightened Def Con from 0.00859076 to 0.00859076
Heightened Def Con from 0.00859137 to 0.00859137
Heightened Def Con from 0.00859188 to 0.00859188
Heightened Def Con from 0.00859193 to 0.00859193
Heightened Def Con from 0.00859211 to 0.00859211
Heightened Def Con from 0.00859217 to 0.00859217
Heightened Def Con from 0.00859233 to 0.00859234
Heightened Def Con from 0.00859247 to 0.00859247
Heightened Def Con from 0.00859259 to 0.00859259
Heightened Def Con from 0.00859298 to 0.00859298
Heightened Def Con from 0.00859313 to 0.00859313
Heightened Def Con from 0.00859359 to 0.00859359
Heightened Def Con from 0.00859386 to 0.00859386
Heightened Def Con from 0.00859417 to 0.00859417
Heightened Def Con from 0.00859422 to 0.00859422
Heightened Def Con from 0.00859428 to 0.00859428
Heightened Def Con from 0.0085944 to 0.0085944
Heightened Def Con from 0.00859464 to 0.00859464
Heightened Def Con from 0.0085947 +to 0.0085947
Heightened Def Con from 0.00859486 to 0.00859486
Heightened Def Con from 0.00859516 to 0.00859516
Heightened Def Con from 0.0085952 to 0.0085952
Heightened Def Con from 0.00859526 to 0.00859526
Heightened Def Con from 0.00859554 to 0.00859555
Heightened Def Con from 0.00859561 to 0.00859561
Heightened Def Con from 0.00859578 to 0.00859578
Heightened Def Con from 0.00859607 to 0.00859607
Heightened Def Con from 0.0085963 to 0.0085963
Heightened Def Con from 0.00859642 to 0.00859642
Heightened Def Con from 0.00859665 to 0.00859665
Heightened Def Con from 0.00859699 to 0.00859699
Heightened Def Con from 0.00859739 to 0.00859739
Heightened Def Con from 0.00859744 to 0.00859744
Heightened Def Con from 0.00859756 to 0.00859756
Heightened Def Con from 0.00859778 to 0.00859778
Heightened Def Con from 0.00859789 to 0.00859789
Heightened Def Con from 0.00859796 to 0.00859796
Heightened Def Con from 0.00859801 to 0.00859801
Heightened Def Con from 0.00859819 to 0.00859819
Heightened Def Con from 0.00859825 to 0.00859825
Heightened Def Con from 0.00859842 to 0.00859842
Heightened Def Con from 0.00859852 to 0.00859853
Heightened Def Con from 0.00859858 to 0.00859858
Heightened Def Con from 0.00859909 to 0.00859909
Heightened Def Con from 0.00859914 to 0.00859914
Heightened Def Con from 0.00859932 to 0.00859932
Heightened Def Con from 0.00859971 to 0.00859971
Heightened Def Con from 0.00859988 to 0.00859988
Heightened Def Con from 0.0210518 to 0.0210518
Heightened Def Con from 0.0212093 +to 0.0212093
Heightened Def Con from 0.0212735 to 0.0212735
Heightened Def Con from 0.0278637 to 0.0278637
Heightened Def Con from 0.0279131 to 0.0279131
Heightened Def Con from 0.0286733 to 0.0286733
Heightened Def Con from 0.0286738 to 0.0286738
Heightened Def Con from 0.028674 to 0.028674
Heightened Def Con from 0.0286741 to 0.0286741
Heightened Def Con from 0.0286743 to 0.0286743
Heightened Def Con from 0.0286747 to 0.0286747
Heightened Def Con from 0.0286748 to 0.0286748
Heightened Def Con from 0.0286751 to 0.0286751
Heightened Def Con from 0.0286754 to 0.0286754
Heightened Def Con from 0.0286757 to 0.0286757
Heightened Def Con from 0.0286763 to 0.0286763
Heightened Def Con from 0.0286765 to 0.0286765
Heightened Def Con from 0.0286768 to 0.0286768
Heightened Def Con from 0.0286771 to 0.0286771
Heightened Def Con from 0.0286775 to 0.0286775
Heightened Def Con from 0.0286776 to 0.0286776
Heightened Def Con from 0.0286777 to 0.0286777
Heightened Def Con from 0.0286781 to 0.0286781
Heightened Def Con from 0.0286783 to 0.0286783
Heightened Def Con from 0.0286785 to 0.0286785
Heightened Def Con from 0.0286786 to 0.0286786
Heightened Def Con from 0.028679 to 0.028679
Heightened Def Con from 0.028679 to 0.028679
Heightened Def Con from 0.0286792 to 0.0286792
Heightened Def Con from 0.0286792 to 0.0286792
Heightened Def Con from 0.0286796 to 0.0286796
Heightened Def Con from 0.0286797 to 0.0286797
Heightened Def Con from 0.0286798 to 0.0286798
Heightened Def Con from 0.0286799 to 0.0286799
Heightened Def Con from 0.0286803 to 0.0286803
Heightened Def Con from 0.0286804 to 0.0286804
Heightened Def Con from 0.0286806 to 0.0286806
Heightened Def Con from 0.0286808 to 0.0286808
Heightened Def Con from 0.0286812 to 0.0286812
Heightened Def Con from 0.0286813 to 0.0286813
Heightened Def Con from 0.0286815 to 0.0286815
Heightened Def Con from 0.0286822 to 0.0286822
Heightened Def Con from 0.0286825 to 0.0286825
Heightened Def Con from 0.0286827 to 0.0286827
Heightened Def Con from 0.0286832 to 0.0286832
Heightened Def Con from 0.0286833 to 0.0286833
Heightened Def Con from 0.0286834 to 0.0286834
Heightened Def Con from 0.0286837 to 0.0286837
Heightened Def Con from 0.0286839 to 0.0286839
Heightened Def Con from 0.028684 to 0.028684
Heightened Def Con from 0.0286841 to 0.0286841
Heightened Def Con from 0.028805 to 0.028805
Heightened Def Con from 0.0288051 to 0.0288051
Heightened Def Con from 0.0288051 to 0.0288051
Heightened Def Con from 0.0288052 to 0.0288052
Heightened Def Con from 0.0288054 to 0.0288054
Heightened Def Con from 0.0288058 to 0.0288058
Heightened Def Con from 0.028806 to 0.028806
Heightened Def Con from 0.0288061 to 0.0288061
Heightened Def Con from 0.0288065 to 0.0288065
Heightened Def Con from 0.0288071 to 0.0288071
Heightened Def Con from 0.0288075 to 0.0288075
Heightened Def Con from 0.0288083 to 0.0288083
Heightened Def Con from 0.0288085 to 0.0288085
Heightened Def Con from 0.0410048 to 0.0410048
Heightened Def Con from 0.0469536 ++++++++++++++++++++++++++++++++++++++to 0.0469536
Heightened Def Con from 0.0469536 ++++++++++++++++++to 0.0469536
Heightened Def Con from 0.0480184 to 0.0480184
Heightened Def Con from 0.0487535 to 0.0487535
Heightened Def Con from 0.0487552 to 0.0487552
Heightened Def Con from 0.0487553 to 0.0487553
Heightened Def Con from 0.0487555 to 0.0487555
Heightened Def Con from 0.0487556 to 0.0487556
Heightened Def Con from 0.048756 to 0.048756
Heightened Def Con from 0.0487567 to 0.0487567
Heightened Def Con from 0.0487567 to 0.0487567
Heightened Def Con from 0.0487568 to 0.0487568
Heightened Def Con from 0.0487571 to 0.0487571
Heightened Def Con from 0.0487574 to 0.0487574
Heightened Def Con from 0.0487575 to 0.0487575
Heightened Def Con from 0.0487579 to 0.0487579
Heightened Def Con from 0.0487591 to 0.0487591
Heightened Def Con from 0.0487606 to 0.0487606
Heightened Def Con from 0.0487609 to 0.0487609
Heightened Def Con from 0.0487609 to 0.0487609
Heightened Def Con from 0.0487613 to 0.0487613
Heightened Def Con from 0.0487613 to 0.0487613
Heightened Def Con from 0.0487618 to 0.0487618
Heightened Def Con from 0.048762 to 0.048762
Heightened Def Con from 0.0487621 to 0.0487621
Heightened Def Con from 0.0487629 to 0.0487629
Heightened Def Con from 0.0487631 to 0.0487631
Heightened Def Con from 0.0487632 to 0.0487632
Heightened Def Con from 0.0487636 to 0.0487636
Heightened Def Con from 0.0487637 to 0.0487637
Heightened Def Con from 0.0490567 to 0.0490567
Heightened Def Con from 0.0490568 to 0.0490568
Heightened Def Con from 0.0490571 to 0.0490571
Heightened Def Con from 0.0490575 to 0.0490575
Heightened Def Con from 0.0490576 to 0.0490576
Heightened Def Con from 0.0490582 to 0.0490582
Heightened Def Con from 0.0490583 to 0.0490583
Heightened Def Con from 0.0490588 to 0.0490588
Heightened Def Con from 0.049059 to 0.049059
Heightened Def Con from 0.0490594 to 0.0490594
Heightened Def Con from 0.0490601 to 0.0490601
Heightened Def Con from 0.0490603 to 0.0490603
Heightened Def Con from 0.060847 to 0.060847
Heightened Def Con from 0.0688282 to 0.0688282
Heightened Def Con from 0.0688284 to 0.0688284
Heightened Def Con from 0.0688288 to 0.0688288
Heightened Def Con from 0.0688292 to 0.0688292
Heightened Def Con from 0.0688293 to 0.0688293
Heightened Def Con from 0.0688293 to 0.0688293
Heightened Def Con from 0.0688297 to 0.0688297
Heightened Def Con from 0.0688298 to 0.0688298
Heightened Def Con from 0.0688309 to 0.0688309
Heightened Def Con from 0.0688311 to 0.0688311
Heightened Def Con from 0.0688312 to 0.0688312
Heightened Def Con from 0.0688314 to 0.0688314
Heightened Def Con from 0.0688315 to 0.0688315
Heightened Def Con from 0.0688321 to 0.0688321
Heightened Def Con from 0.0688322 to 0.0688322
Heightened Def Con from 0.0688323 to 0.0688323
Heightened Def Con from 0.0688333 to 0.0688333
Heightened Def Con from 0.0688337 to 0.0688337
Heightened Def Con from 0.0688347 to 0.0688347
Heightened Def Con from 0.0688354 to 0.0688354
Heightened Def Con from 0.0688358 to 0.0688358
Heightened Def Con from 0.0688359 to 0.0688359
Heightened Def Con from 0.0688361 to 0.0688361
Heightened Def Con from 0.0688366 to 0.0688366
Heightened Def Con from 0.0688377 to 0.0688377
Heightened Def Con from 0.0688384 to 0.0688384
Heightened Def Con from 0.0688387 to 0.0688387
Heightened Def Con from 0.0692516 to 0.0692516
Heightened Def Con from 0.0692517 to 0.0692517
Heightened Def Con from 0.0692518 to 0.0692518
Heightened Def Con from 0.069252 to 0.069252
Heightened Def Con from 0.0692523 to 0.0692524
Heightened Def Con from 0.0692525 to 0.0692525
Heightened Def Con from 0.069253 to 0.069253
Heightened Def Con from 0.0692531 to 0.0692531
Heightened Def Con from 0.069254 to 0.069254
Heightened Def Con from 0.0692546 to 0.0692546
Heightened Def Con from 0.0692549 to 0.0692549
Heightened Def Con from 0.069255 to 0.069255
Heightened Def Con from 0.0806169 to 0.0806169
Heightened Def Con from 0.0809588 +to 0.0809588
Heightened Def Con from 0.0881881 ++++++++++++++++++++++++++++++++++++++to 0.0881881
Heightened Def Con from 0.0881881 ++++++++++++++++++to 0.0881881
Heightened Def Con from 0.0888288 ++++++++++++++++++++to 0.0888288
Heightened Def Con from 0.0888988 to 0.0888988
Heightened Def Con from 0.0888999 to 0.0888999
Heightened Def Con from 0.0889003 to 0.0889003
Heightened Def Con from 0.0889007 to 0.0889007
Heightened Def Con from 0.0889009 to 0.0889009
Heightened Def Con from 0.0889012 to 0.0889012
Heightened Def Con from 0.0889013 to 0.0889013
Heightened Def Con from 0.0889015 to 0.0889015
Heightened Def Con from 0.0889017 to 0.0889017
Heightened Def Con from 0.0889019 to 0.0889019
Heightened Def Con from 0.0889022 to 0.0889022
Heightened Def Con from 0.0889023 to 0.0889023
Heightened Def Con from 0.0889025 to 0.0889025
Heightened Def Con from 0.0889026 to 0.0889026
Heightened Def Con from 0.0889027 to 0.0889027
Heightened Def Con from 0.088903 to 0.088903
Heightened Def Con from 0.0889031 to 0.0889031
Heightened Def Con from 0.088904 to 0.088904
Heightened Def Con from 0.0889044 to 0.0889044
Heightened Def Con from 0.0889045 to 0.0889045
Heightened Def Con from 0.0889046 to 0.0889046
Heightened Def Con from 0.0889046 to 0.0889046
Heightened Def Con from 0.0889061 to 0.0889061
Heightened Def Con from 0.0889061 to 0.0889061
Heightened Def Con from 0.0889061 to 0.0889061
Heightened Def Con from 0.0889062 to 0.0889062
Heightened Def Con from 0.0889064 to 0.0889064
Heightened Def Con from 0.0889066 to 0.0889066
Heightened Def Con from 0.088907 to 0.088907
Heightened Def Con from 0.0889071 to 0.0889071
Heightened Def Con from 0.0889073 to 0.0889073
Heightened Def Con from 0.0889078 to 0.0889078
Heightened Def Con from 0.0889084 to 0.0889084
Heightened Def Con from 0.0889085 to 0.0889085
Heightened Def Con from 0.0889086 to 0.0889086
Heightened Def Con from 0.088909 to 0.088909
Heightened Def Con from 0.0889094 to 0.0889094
Heightened Def Con from 0.0889095 to 0.0889095
Heightened Def Con from 0.0894051 to 0.0894051
Heightened Def Con from 0.0894052 to 0.0894052
Heightened Def Con from 0.0894052 to 0.0894052
Heightened Def Con from 0.0894054 to 0.0894054
Heightened Def Con from 0.0894055 to 0.0894055
Heightened Def Con from 0.0894057 to 0.0894057
Heightened Def Con from 0.089406 to 0.089406
Heightened Def Con from 0.0894064 to 0.0894064
Heightened Def Con from 0.0894067 to 0.0894067
Heightened Def Con from 0.0894067 to 0.0894067
Heightened Def Con from 0.0894073 to 0.0894073
Heightened Def Con from 0.0894074 to 0.0894074
Heightened Def Con from 0.0894075 to 0.0894075
Heightened Def Con from 0.100748 to 0.100748
Heightened Def Con from 0.107495 to 0.107495
Heightened Def Con from 0.108245 to 0.108245
Heightened Def Con from 0.108965 to 0.108965
Heightened Def Con from 0.108966 to 0.108966
Heightened Def Con from 0.108966 to 0.108966
Heightened Def Con from 0.108966 to 0.108966
Heightened Def Con from 0.108967 to 0.108967
Heightened Def Con from 0.108967 to 0.108967
Heightened Def Con from 0.108967 to 0.108967
Heightened Def Con from 0.108967 to 0.108967
Heightened Def Con from 0.108967 to 0.108967
Heightened Def Con from 0.108968 to 0.108968
Heightened Def Con from 0.108968 to 0.108968
Heightened Def Con from 0.108968 to 0.108968
Heightened Def Con from 0.108968 to 0.108968
Heightened Def Con from 0.108968 to 0.108968
Heightened Def Con from 0.108968 to 0.108968
Heightened Def Con from 0.108968 to 0.108968
Heightened Def Con from 0.108968 to 0.108968
Heightened Def Con from 0.108969 to 0.108969
Heightened Def Con from 0.108969 to 0.108969
Heightened Def Con from 0.108969 to 0.108969
Heightened Def Con from 0.108969 to 0.108969
Heightened Def Con from 0.108969 to 0.108969
Heightened Def Con from 0.108969 to 0.108969
Heightened Def Con from 0.108969 to 0.108969
Heightened Def Con from 0.108969 to 0.108969
Heightened Def Con from 0.108969 to 0.108969
Heightened Def Con from 0.108969 to 0.108969
Heightened Def Con from 0.108969 to 0.108969
Heightened Def Con from 0.10897 to 0.10897
Heightened Def Con from 0.10897 to 0.10897
Heightened Def Con from 0.10897 to 0.10897
Heightened Def Con from 0.10897 to 0.10897
Heightened Def Con from 0.108971 to 0.108971
Heightened Def Con from 0.108971 to 0.108971
Heightened Def Con from 0.108971 to 0.108971
Heightened Def Con from 0.108971 to 0.108971
Heightened Def Con from 0.108971 to 0.108971
Heightened Def Con from 0.108971 to 0.108971
Heightened Def Con from 0.108971 to 0.108971
Heightened Def Con from 0.108971 to 0.108971
Heightened Def Con from 0.108971 to 0.108971
Heightened Def Con from 0.108972 to 0.108972
Heightened Def Con from 0.108972 to 0.108972
Heightened Def Con from 0.108972 to 0.108972
Heightened Def Con from 0.108972 to 0.108972
Heightened Def Con from 0.108972 to 0.108972
Heightened Def Con from 0.108973 to 0.108973
Heightened Def Con from 0.108973 to 0.108973
Heightened Def Con from 0.108973 to 0.108973
Heightened Def Con from 0.108973 to 0.108973
Heightened Def Con from 0.108973 to 0.108973
Heightened Def Con from 0.108973 to 0.108973
Heightened Def Con from 0.108973 to 0.108973
Heightened Def Con from 0.108973 to 0.108973
Heightened Def Con from 0.108975 to 0.108975
Heightened Def Con from 0.108975 to 0.108975
Heightened Def Con from 0.108975 to 0.108975
Heightened Def Con from 0.108975 to 0.108975
Heightened Def Con from 0.108975 to 0.108975
Heightened Def Con from 0.108975 to 0.108975
Heightened Def Con from 0.108975 to 0.108975
Heightened Def Con from 0.108975 to 0.108975
Heightened Def Con from 0.108975 to 0.108975
Heightened Def Con from 0.108976 to 0.108976
Heightened Def Con from 0.108976 to 0.108976
Heightened Def Con from 0.108976 to 0.108976
Heightened Def Con from 0.108976 to 0.108976
Heightened Def Con from 0.108976 to 0.108976
Heightened Def Con from 0.108976 to 0.108976
Heightened Def Con from 0.108976 to 0.108976
Heightened Def Con from 0.109527 to 0.109527
Heightened Def Con from 0.109527 to 0.109527
Heightened Def Con from 0.109527 to 0.109527
Heightened Def Con from 0.109527 to 0.109527
Heightened Def Con from 0.109527 to 0.109527
Heightened Def Con from 0.109528 to 0.109528
Heightened Def Con from 0.109528 to 0.109528
Heightened Def Con from 0.109528 to 0.109528
Heightened Def Con from 0.109528 to 0.109528
Heightened Def Con from 0.109528 to 0.109528
Heightened Def Con from 0.109529 to 0.109529
Heightened Def Con from 0.109529 to 0.109529
Heightened Def Con from 0.109529 to 0.109529
Heightened Def Con from 0.109529 to 0.109529
Heightened Def Con from 0.109529 to 0.109529
Heightened Def Con from 0.109529 to 0.109529
Heightened Def Con from 0.109529 to 0.109529
Heightened Def Con from 0.10953 to 0.10953
Heightened Def Con from 0.10953 to 0.10953
Heightened Def Con from 0.10953 to 0.10953
Heightened Def Con from 0.10953 to 0.10953
Heightened Def Con from 0.10953 to 0.10953
Heightened Def Con from 0.10953 to 0.10953
Heightened Def Con from 0.10953 to 0.10953
Heightened Def Con from 0.10953 to 0.10953
Heightened Def Con from 0.10953 to 0.10953
Heightened Def Con from 0.10953 to 0.10953
Heightened Def Con from 0.10953 to 0.10953
Heightened Def Con from 0.109531 to 0.109531
Heightened Def Con from 0.109531 to 0.109531
Heightened Def Con from 0.109531 to 0.109531
Heightened Def Con from 0.109531 to 0.109531
Heightened Def Con from 0.109531 to 0.109531
Heightened Def Con from 0.120701 to 0.120701
Heightened Def Con from 0.128185 to 0.128185
Heightened Def Con from 0.128287 to 0.128287
Heightened Def Con from 0.12832 to 0.12832
Heightened Def Con from 0.129029 to 0.129029
Heightened Def Con from 0.129029 to 0.129029
Heightened Def Con from 0.12903 to 0.12903
Heightened Def Con from 0.12903 to 0.12903
Heightened Def Con from 0.12903 to 0.12903
Heightened Def Con from 0.12903 to 0.12903
Heightened Def Con from 0.12903 to 0.12903
Heightened Def Con from 0.12903 to 0.12903
Heightened Def Con from 0.12903 to 0.12903
Heightened Def Con from 0.129031 to 0.129031
Heightened Def Con from 0.129031 to 0.129031
Heightened Def Con from 0.129031 to 0.129031
Heightened Def Con from 0.129031 to 0.129031
Heightened Def Con from 0.129031 to 0.129031
Heightened Def Con from 0.129031 to 0.129031
Heightened Def Con from 0.129031 to 0.129031
Heightened Def Con from 0.129031 to 0.129031
Heightened Def Con from 0.129032 to 0.129032
Heightened Def Con from 0.129032 to 0.129032
Heightened Def Con from 0.129032 to 0.129032
Heightened Def Con from 0.129032 to 0.129032
Heightened Def Con from 0.129032 to 0.129032
Heightened Def Con from 0.129032 to 0.129032
Heightened Def Con from 0.129032 to 0.129032
Heightened Def Con from 0.129032 to 0.129032
Heightened Def Con from 0.129032 to 0.129032
Heightened Def Con from 0.129032 +to 0.129032
Heightened Def Con from 0.129032 +to 0.129032
Heightened Def Con from 0.129032 to 0.129032
Heightened Def Con from 0.129032 to 0.129032
Heightened Def Con from 0.129032 to 0.129032
Heightened Def Con from 0.129032 to 0.129032
Heightened Def Con from 0.129032 to 0.129032
Heightened Def Con from 0.129033 to 0.129033
Heightened Def Con from 0.129033 to 0.129033
Heightened Def Con from 0.129033 to 0.129033
Heightened Def Con from 0.129033 to 0.129033
Heightened Def Con from 0.129033 to 0.129033
Heightened Def Con from 0.129033 to 0.129033
Heightened Def Con from 0.129033 to 0.129033
Heightened Def Con from 0.129033 to 0.129033
Heightened Def Con from 0.129033 to 0.129033
Heightened Def Con from 0.129034 to 0.129034
Heightened Def Con from 0.129034 to 0.129034
Heightened Def Con from 0.129034 to 0.129034
Heightened Def Con from 0.129034 to 0.129034
Heightened Def Con from 0.129034 to 0.129034
Heightened Def Con from 0.129034 to 0.129034
Heightened Def Con from 0.129034 to 0.129034
Heightened Def Con from 0.129034 to 0.129034
Heightened Def Con from 0.129034 to 0.129034
Heightened Def Con from 0.129034 to 0.129034
Heightened Def Con from 0.129034 to 0.129034
Heightened Def Con from 0.129034 to 0.129034
Heightened Def Con from 0.129035 to 0.129035
Heightened Def Con from 0.129035 to 0.129035
Heightened Def Con from 0.129035 to 0.129035
Heightened Def Con from 0.129035 to 0.129035
Heightened Def Con from 0.129035 to 0.129035
Heightened Def Con from 0.129036 to 0.129036
Heightened Def Con from 0.129036 to 0.129036
Heightened Def Con from 0.129036 to 0.129036
Heightened Def Con from 0.129036 to 0.129036
Heightened Def Con from 0.129036 to 0.129036
Heightened Def Con from 0.129037 to 0.129037
Heightened Def Con from 0.129037 to 0.129037
Heightened Def Con from 0.129037 to 0.129037
Heightened Def Con from 0.129037 to 0.129037
Heightened Def Con from 0.129037 to 0.129037
Heightened Def Con from 0.129037 to 0.129037
Heightened Def Con from 0.129037 to 0.129037
Heightened Def Con from 0.129037 to 0.129037
Heightened Def Con from 0.129038 to 0.129038
Heightened Def Con from 0.129038 to 0.129038
Heightened Def Con from 0.129038 to 0.129038
Heightened Def Con from 0.129038 to 0.129038
Heightened Def Con from 0.129038 to 0.129038
Heightened Def Con from 0.129038 to 0.129038
Heightened Def Con from 0.129039 to 0.129039
Heightened Def Con from 0.129039 to 0.129039
Heightened Def Con from 0.129039 to 0.129039
Heightened Def Con from 0.129039 to 0.129039
Heightened Def Con from 0.129039 to 0.129039
Heightened Def Con from 0.129039 to 0.129039
Heightened Def Con from 0.129039 to 0.129039
Heightened Def Con from 0.129039 to 0.129039
Heightened Def Con from 0.12904 to 0.12904
Heightened Def Con from 0.12904 to 0.12904
Heightened Def Con from 0.12904 to 0.12904
Heightened Def Con from 0.12927 to 0.12927
Heightened Def Con from 0.129394 to 0.129394
Heightened Def Con from 0.129627 to 0.129627
Heightened Def Con from 0.129627 to 0.129627
Heightened Def Con from 0.129627 to 0.129627
Heightened Def Con from 0.129627 to 0.129627
Heightened Def Con from 0.129627 to 0.129627
Heightened Def Con from 0.129627 to 0.129627
Heightened Def Con from 0.129627 +to 0.129627
Heightened Def Con from 0.129628 to 0.129628
Heightened Def Con from 0.129628 to 0.129628
Heightened Def Con from 0.129628 to 0.129628
Heightened Def Con from 0.129628 to 0.129628
Heightened Def Con from 0.129628 to 0.129628
Heightened Def Con from 0.129629 to 0.129629
Heightened Def Con from 0.129629 to 0.129629
Heightened Def Con from 0.129629 to 0.129629
Heightened Def Con from 0.129629 to 0.129629
Heightened Def Con from 0.129629 to 0.129629
Heightened Def Con from 0.129629 to 0.129629
Heightened Def Con from 0.129629 to 0.129629
Heightened Def Con from 0.129629 to 0.129629
Heightened Def Con from 0.12963 to 0.12963
Heightened Def Con from 0.12963 to 0.12963
Heightened Def Con from 0.12963 to 0.12963
Heightened Def Con from 0.12963 to 0.12963
Heightened Def Con from 0.12963 to 0.12963
Heightened Def Con from 0.12963 to 0.12963
Heightened Def Con from 0.12963 to 0.12963
Heightened Def Con from 0.12963 to 0.12963
Heightened Def Con from 0.12963 to 0.12963
Heightened Def Con from 0.12963 to 0.12963
Heightened Def Con from 0.139918 to 0.139918
Heightened Def Con from 0.139974 to 0.139974
Heightened Def Con from 0.140127 to 0.140127
Heightened Def Con from 0.1403 to 0.1403
Heightened Def Con from 0.140481 to 0.140481
Heightened Def Con from 0.147537 to 0.147537
Heightened Def Con from 0.14838 to 0.14838
Heightened Def Con from 0.149089 to 0.149089
Heightened Def Con from 0.149089 to 0.149089
Heightened Def Con from 0.149089 to 0.149089
Heightened Def Con from 0.149089 to 0.149089
Heightened Def Con from 0.149089 to 0.149089
Heightened Def Con from 0.149089 to 0.149089
Heightened Def Con from 0.14909 to 0.14909
Heightened Def Con from 0.14909 to 0.14909
Heightened Def Con from 0.14909 to 0.14909
Heightened Def Con from 0.14909 to 0.14909
Heightened Def Con from 0.14909 to 0.14909
Heightened Def Con from 0.14909 to 0.14909
Heightened Def Con from 0.14909 to 0.14909
Heightened Def Con from 0.14909 to 0.14909
Heightened Def Con from 0.149091 to 0.149091
Heightened Def Con from 0.149091 to 0.149091
Heightened Def Con from 0.149091 to 0.149091
Heightened Def Con from 0.149091 to 0.149091
Heightened Def Con from 0.149091 to 0.149091
Heightened Def Con from 0.149091 to 0.149091
Heightened Def Con from 0.149091 to 0.149091
Heightened Def Con from 0.149091 to 0.149091
Heightened Def Con from 0.149091 to 0.149091
Heightened Def Con from 0.149092 to 0.149092
Heightened Def Con from 0.149092 to 0.149092
Heightened Def Con from 0.149092 to 0.149092
Heightened Def Con from 0.149092 to 0.149092
Heightened Def Con from 0.149092 to 0.149092
Heightened Def Con from 0.149092 to 0.149092
Heightened Def Con from 0.149092 to 0.149092
Heightened Def Con from 0.149092 to 0.149092
Heightened Def Con from 0.149093 to 0.149093
Heightened Def Con from 0.149093 to 0.149093
Heightened Def Con from 0.149093 to 0.149093
Heightened Def Con from 0.149093 to 0.149093
Heightened Def Con from 0.149093 to 0.149093
Heightened Def Con from 0.149093 to 0.149093
Heightened Def Con from 0.149093 to 0.149093
Heightened Def Con from 0.149093 to 0.149093
Heightened Def Con from 0.149094 to 0.149094
Heightened Def Con from 0.149094 to 0.149094
Heightened Def Con from 0.149094 to 0.149094
Heightened Def Con from 0.149094 to 0.149094
Heightened Def Con from 0.149094 to 0.149094
Heightened Def Con from 0.149094 to 0.149094
Heightened Def Con from 0.149094 to 0.149094
Heightened Def Con from 0.149094 to 0.149094
Heightened Def Con from 0.149095 to 0.149095
Heightened Def Con from 0.149095 to 0.149095
Heightened Def Con from 0.149095 to 0.149095
Heightened Def Con from 0.149095 to 0.149095
Heightened Def Con from 0.149095 to 0.149095
Heightened Def Con from 0.149095 to 0.149095
Heightened Def Con from 0.149095 to 0.149095
Heightened Def Con from 0.149095 to 0.149095
Heightened Def Con from 0.149095 to 0.149095
Heightened Def Con from 0.149096 to 0.149096
Heightened Def Con from 0.149096 to 0.149096
Heightened Def Con from 0.149096 to 0.149096
Heightened Def Con from 0.149096 to 0.149096
Heightened Def Con from 0.149096 to 0.149096
Heightened Def Con from 0.149096 to 0.149096
Heightened Def Con from 0.149096 +++to 0.149096
Heightened Def Con from 0.149096 +to 0.149096
Heightened Def Con from 0.149096 to 0.149096
Heightened Def Con from 0.149096 +++++++++++++to 0.149096
Heightened Def Con from 0.149096 ++++++++++++++++++to 0.149096
Heightened Def Con from 0.149096 ++++++++++++to 0.149096
Heightened Def Con from 0.149096 ++++++++++++to 0.149096
Heightened Def Con from 0.149096 ++++++++++++to 0.149096
Heightened Def Con from 0.149097 to 0.149097
Heightened Def Con from 0.149097 to 0.149097
Heightened Def Con from 0.149097 to 0.149097
Heightened Def Con from 0.149097 to 0.149097
Heightened Def Con from 0.149097 to 0.149097
Heightened Def Con from 0.149097 to 0.149097
Heightened Def Con from 0.149097 to 0.149097
Heightened Def Con from 0.149097 to 0.149097
Heightened Def Con from 0.149097 to 0.149097
Heightened Def Con from 0.149098 to 0.149098
Heightened Def Con from 0.149098 to 0.149098
Heightened Def Con from 0.149098 to 0.149098
Heightened Def Con from 0.149098 to 0.149098
Heightened Def Con from 0.149098 to 0.149098
Heightened Def Con from 0.149098 to 0.149098
Heightened Def Con from 0.149098 to 0.149098
Heightened Def Con from 0.149098 to 0.149098
Heightened Def Con from 0.149098 to 0.149098
Heightened Def Con from 0.149099 to 0.149099
Heightened Def Con from 0.149099 to 0.149099
Heightened Def Con from 0.149099 to 0.149099
Heightened Def Con from 0.149099 to 0.149099
Heightened Def Con from 0.149099 to 0.149099
Heightened Def Con from 0.149099 to 0.149099
Heightened Def Con from 0.149352 to 0.149352
Heightened Def Con from 0.149509 to 0.149509
Heightened Def Con from 0.149708 to 0.149708
Heightened Def Con from 0.149708 to 0.149708
Heightened Def Con from 0.149708 to 0.149708
Heightened Def Con from 0.149708 to 0.149708
Heightened Def Con from 0.149709 to 0.149709
Heightened Def Con from 0.149709 to 0.149709
Heightened Def Con from 0.149709 to 0.149709
Heightened Def Con from 0.149709 to 0.149709
Heightened Def Con from 0.149709 to 0.149709
Heightened Def Con from 0.149709 to 0.149709
Heightened Def Con from 0.149709 to 0.149709
Heightened Def Con from 0.14971 to 0.14971
Heightened Def Con from 0.14971 to 0.14971
Heightened Def Con from 0.14971 to 0.14971
Heightened Def Con from 0.14971 to 0.14971
Heightened Def Con from 0.14971 to 0.14971
Heightened Def Con from 0.14971 to 0.14971
Heightened Def Con from 0.14971 to 0.14971
Heightened Def Con from 0.14971 to 0.14971
Heightened Def Con from 0.14971 to 0.14971
Heightened Def Con from 0.14971 to 0.14971
Heightened Def Con from 0.14971 to 0.14971
Heightened Def Con from 0.149711 to 0.149711
Heightened Def Con from 0.149711 to 0.149711
Heightened Def Con from 0.149711 to 0.149711
Heightened Def Con from 0.149711 to 0.149711
Heightened Def Con from 0.149711 to 0.149711
Heightened Def Con from 0.149711 to 0.149711
Heightened Def Con from 0.149711 to 0.149711
Heightened Def Con from 0.149711 to 0.149711
Heightened Def Con from 0.149711 to 0.149711
Heightened Def Con from 0.159917 to 0.159917
Heightened Def Con from 0.159917 to 0.159917
Heightened Def Con from 0.160055 to 0.160055
Heightened Def Con from 0.160547 to 0.160547
Heightened Def Con from 0.160691 to 0.160691
Heightened Def Con from 0.169145 to 0.169145
Heightened Def Con from 0.169145 to 0.169145
Heightened Def Con from 0.169145 to 0.169145
Heightened Def Con from 0.169145 to 0.169145
Heightened Def Con from 0.169146 to 0.169146
Heightened Def Con from 0.169146 to 0.169146
Heightened Def Con from 0.169146 to 0.169146
Heightened Def Con from 0.169146 to 0.169146
Heightened Def Con from 0.169146 to 0.169146
Heightened Def Con from 0.169146 to 0.169146
Heightened Def Con from 0.169146 to 0.169146
Heightened Def Con from 0.169147 to 0.169147
Heightened Def Con from 0.169147 to 0.169147
Heightened Def Con from 0.169147 to 0.169147
Heightened Def Con from 0.169147 to 0.169147
Heightened Def Con from 0.169147 to 0.169147
Heightened Def Con from 0.169148 to 0.169148
Heightened Def Con from 0.169148 to 0.169148
Heightened Def Con from 0.169148 to 0.169148
Heightened Def Con from 0.169148 to 0.169148
Heightened Def Con from 0.169148 to 0.169148
Heightened Def Con from 0.169148 to 0.169148
Heightened Def Con from 0.169148 to 0.169148
Heightened Def Con from 0.169148 to 0.169148
Heightened Def Con from 0.169148 to 0.169148
Heightened Def Con from 0.169148 to 0.169148
Heightened Def Con from 0.169148 to 0.169148
Heightened Def Con from 0.169149 to 0.169149
Heightened Def Con from 0.169149 to 0.169149
Heightened Def Con from 0.169149 to 0.169149
Heightened Def Con from 0.169149 to 0.169149
Heightened Def Con from 0.169149 to 0.169149
Heightened Def Con from 0.169149 to 0.169149
Heightened Def Con from 0.169149 to 0.169149
Heightened Def Con from 0.16915 to 0.16915
Heightened Def Con from 0.16915 to 0.16915
Heightened Def Con from 0.16915 to 0.16915
Heightened Def Con from 0.16915 to 0.16915
Heightened Def Con from 0.16915 to 0.16915
Heightened Def Con from 0.169151 to 0.169151
Heightened Def Con from 0.169151 to 0.169151
Heightened Def Con from 0.169151 to 0.169151
Heightened Def Con from 0.169151 to 0.169151
Heightened Def Con from 0.169151 to 0.169151
Heightened Def Con from 0.169151 to 0.169151
Heightened Def Con from 0.169151 to 0.169151
Heightened Def Con from 0.169151 to 0.169151
Heightened Def Con from 0.169151 to 0.169151
Heightened Def Con from 0.169151 to 0.169151
Heightened Def Con from 0.169152 to 0.169152
Heightened Def Con from 0.169152 to 0.169152
Heightened Def Con from 0.169152 to 0.169152
Heightened Def Con from 0.169152 to 0.169152
Heightened Def Con from 0.169152 to 0.169152
Heightened Def Con from 0.169152 to 0.169152
Heightened Def Con from 0.169152 to 0.169152
Heightened Def Con from 0.169153 to 0.169153
Heightened Def Con from 0.169153 to 0.169153
Heightened Def Con from 0.169153 to 0.169153
Heightened Def Con from 0.169153 to 0.169153
Heightened Def Con from 0.169154 to 0.169154
Heightened Def Con from 0.169154 to 0.169154
Heightened Def Con from 0.169154 to 0.169154
Heightened Def Con from 0.169154 to 0.169154
Heightened Def Con from 0.169154 to 0.169154
Heightened Def Con from 0.169154 to 0.169154
Heightened Def Con from 0.169154 to 0.169154
Heightened Def Con from 0.169155 to 0.169155
Heightened Def Con from 0.169155 to 0.169155
Heightened Def Con from 0.169155 to 0.169155
Heightened Def Con from 0.169155 to 0.169155
Heightened Def Con from 0.169155 to 0.169155
Heightened Def Con from 0.169155 to 0.169155
Heightened Def Con from 0.169155 to 0.169155
Heightened Def Con from 0.169156 to 0.169156
Heightened Def Con from 0.169156 to 0.169156
Heightened Def Con from 0.169156 to 0.169156
Heightened Def Con from 0.169156 to 0.169156
Heightened Def Con from 0.169156 to 0.169156
Heightened Def Con from 0.169156 to 0.169156
Heightened Def Con from 0.169156 to 0.169156
Heightened Def Con from 0.169156 to 0.169156
Heightened Def Con from 0.16958 to 0.16958
Heightened Def Con from 0.169774 to 0.169774
Heightened Def Con from 0.169774 to 0.169774
Heightened Def Con from 0.169774 to 0.169774
Heightened Def Con from 0.169774 to 0.169774
Heightened Def Con from 0.169774 to 0.169774
Heightened Def Con from 0.169774 to 0.169774
Heightened Def Con from 0.169775 to 0.169775
Heightened Def Con from 0.169775 to 0.169775
Heightened Def Con from 0.169775 to 0.169775
Heightened Def Con from 0.169775 to 0.169775
Heightened Def Con from 0.169775 to 0.169775
Heightened Def Con from 0.169775 to 0.169775
Heightened Def Con from 0.169775 to 0.169775
Heightened Def Con from 0.169775 to 0.169775
Heightened Def Con from 0.169775 to 0.169775
Heightened Def Con from 0.169775 to 0.169775
Heightened Def Con from 0.169776 to 0.169776
Heightened Def Con from 0.169776 to 0.169776
Heightened Def Con from 0.169776 to 0.169776
Heightened Def Con from 0.169776 to 0.169776
Heightened Def Con from 0.169776 to 0.169776
Heightened Def Con from 0.169776 to 0.169776
Heightened Def Con from 0.169776 to 0.169776
Heightened Def Con from 0.169776 to 0.169776
Heightened Def Con from 0.169776 to 0.169776
Heightened Def Con from 0.169776 to 0.169776
Heightened Def Con from 0.169776 to 0.169776
Heightened Def Con from 0.169777 to 0.169777
Heightened Def Con from 0.169777 to 0.169777
Heightened Def Con from 0.169777 to 0.169777
Heightened Def Con from 0.169777 to 0.169777
Heightened Def Con from 0.169778 to 0.169778
Heightened Def Con from 0.179755 to 0.179755
Heightened Def Con from 0.179996 to 0.179996
Heightened Def Con from 0.180157 to 0.180157
Heightened Def Con from 0.180216 to 0.180216
Heightened Def Con from 0.18052 to 0.18052
Heightened Def Con from 0.189199 to 0.189199
Heightened Def Con from 0.189199 to 0.189199
Heightened Def Con from 0.189199 to 0.189199
Heightened Def Con from 0.189199 to 0.189199
Heightened Def Con from 0.189199 to 0.189199
Heightened Def Con from 0.1892 to 0.1892
Heightened Def Con from 0.1892 to 0.1892
Heightened Def Con from 0.1892 to 0.1892
Heightened Def Con from 0.1892 to 0.1892
Heightened Def Con from 0.1892 to 0.1892
Heightened Def Con from 0.189201 to 0.189201
Heightened Def Con from 0.189201 to 0.189201
Heightened Def Con from 0.189201 to 0.189201
Heightened Def Con from 0.189201 to 0.189201
Heightened Def Con from 0.189201 to 0.189201
Heightened Def Con from 0.189201 to 0.189201
Heightened Def Con from 0.189201 to 0.189201
Heightened Def Con from 0.189201 to 0.189201
Heightened Def Con from 0.189201 to 0.189201
Heightened Def Con from 0.189201 to 0.189201
Heightened Def Con from 0.189201 to 0.189201
Heightened Def Con from 0.189202 to 0.189202
Heightened Def Con from 0.189202 to 0.189202
Heightened Def Con from 0.189202 to 0.189202
Heightened Def Con from 0.189202 to 0.189202
Heightened Def Con from 0.189202 to 0.189202
Heightened Def Con from 0.189202 to 0.189202
Heightened Def Con from 0.189202 to 0.189202
Heightened Def Con from 0.189202 to 0.189202
Heightened Def Con from 0.189203 to 0.189203
Heightened Def Con from 0.189203 to 0.189203
Heightened Def Con from 0.189203 to 0.189203
Heightened Def Con from 0.189203 to 0.189203
Heightened Def Con from 0.189203 to 0.189203
Heightened Def Con from 0.189203 to 0.189203
Heightened Def Con from 0.189203 to 0.189203
Heightened Def Con from 0.189203 to 0.189203
Heightened Def Con from 0.189204 to 0.189204
Heightened Def Con from 0.189204 to 0.189204
Heightened Def Con from 0.189204 to 0.189204
Heightened Def Con from 0.189204 to 0.189204
Heightened Def Con from 0.189204 to 0.189204
Heightened Def Con from 0.189204 to 0.189204
Heightened Def Con from 0.189204 to 0.189204
Heightened Def Con from 0.189205 to 0.189205
Heightened Def Con from 0.189205 to 0.189205
Heightened Def Con from 0.189205 to 0.189205
Heightened Def Con from 0.189205 to 0.189205
Heightened Def Con from 0.189206 to 0.189206
Heightened Def Con from 0.189206 to 0.189206
Heightened Def Con from 0.189206 to 0.189206
Heightened Def Con from 0.189206 to 0.189206
Heightened Def Con from 0.189206 to 0.189206
Heightened Def Con from 0.189206 to 0.189206
Heightened Def Con from 0.189207 to 0.189207
Heightened Def Con from 0.189207 to 0.189207
Heightened Def Con from 0.189207 to 0.189207
Heightened Def Con from 0.189207 to 0.189207
Heightened Def Con from 0.189207 to 0.189207
Heightened Def Con from 0.189207 to 0.189207
Heightened Def Con from 0.189207 to 0.189207
Heightened Def Con from 0.189207 to 0.189207
Heightened Def Con from 0.189208 to 0.189208
Heightened Def Con from 0.189208 to 0.189208
Heightened Def Con from 0.189208 to 0.189208
Heightened Def Con from 0.189208 to 0.189208
Heightened Def Con from 0.189208 to 0.189208
Heightened Def Con from 0.189209 to 0.189209
Heightened Def Con from 0.189828 to 0.189828
Heightened Def Con from 0.189828 to 0.189828
Heightened Def Con from 0.189828 to 0.189828
Heightened Def Con from 0.189829 to 0.189829
Heightened Def Con from 0.189829 to 0.189829
Heightened Def Con from 0.189829 to 0.189829
Heightened Def Con from 0.189829 to 0.189829
Heightened Def Con from 0.189829 to 0.189829
Heightened Def Con from 0.189829 to 0.189829
Heightened Def Con from 0.189829 to 0.189829
Heightened Def Con from 0.189829 to 0.189829
Heightened Def Con from 0.189829 to 0.189829
Heightened Def Con from 0.189829 to 0.189829
Heightened Def Con from 0.189829 to 0.189829
Heightened Def Con from 0.189829 to 0.189829
Heightened Def Con from 0.189829 to 0.189829
Heightened Def Con from 0.18983 to 0.18983
Heightened Def Con from 0.18983 to 0.18983
Heightened Def Con from 0.18983 to 0.18983
Heightened Def Con from 0.18983 to 0.18983
Heightened Def Con from 0.18983 to 0.18983
Heightened Def Con from 0.18983 to 0.18983
Heightened Def Con from 0.18983 to 0.18983
Heightened Def Con from 0.18983 to 0.18983
Heightened Def Con from 0.18983 to 0.18983
Heightened Def Con from 0.18983 to 0.18983
Heightened Def Con from 0.189831 to 0.189831
Heightened Def Con from 0.189831 to 0.189831
Heightened Def Con from 0.189831 to 0.189831
Heightened Def Con from 0.189831 to 0.189831
Heightened Def Con from 0.189831 to 0.189831
Heightened Def Con from 0.189831 to 0.189831
Heightened Def Con from 0.189831 to 0.189831
Heightened Def Con from 0.189831 to 0.189831
Heightened Def Con from 0.189832 to 0.189832
Heightened Def Con from 0.189832 to 0.189832
Heightened Def Con from 0.189832 to 0.189832
Heightened Def Con from 0.189832 to 0.189832
Heightened Def Con from 0.189832 to 0.189832
Heightened Def Con from 0.199616 +++++++++++++++++++++++to 0.199616
Heightened Def Con from 0.199947 to 0.199947
Heightened Def Con from 0.200437 to 0.200437
Heightened Def Con from 0.20843 to 0.20843
Heightened Def Con from 0.20925 to 0.20925
Heightened Def Con from 0.20925 to 0.20925
Heightened Def Con from 0.20925 to 0.20925
Heightened Def Con from 0.20925 to 0.20925
Heightened Def Con from 0.20925 to 0.20925
Heightened Def Con from 0.20925 to 0.20925
Heightened Def Con from 0.20925 to 0.20925
Heightened Def Con from 0.20925 to 0.20925
Heightened Def Con from 0.20925 to 0.20925
Heightened Def Con from 0.20925 to 0.20925
Heightened Def Con from 0.20925 to 0.20925
Heightened Def Con from 0.209251 to 0.209251
Heightened Def Con from 0.209251 to 0.209251
Heightened Def Con from 0.209251 to 0.209251
Heightened Def Con from 0.209251 to 0.209251
Heightened Def Con from 0.209251 to 0.209251
Heightened Def Con from 0.209251 to 0.209251
Heightened Def Con from 0.209251 to 0.209251
Heightened Def Con from 0.209252 to 0.209252
Heightened Def Con from 0.209252 to 0.209252
Heightened Def Con from 0.209252 to 0.209252
Heightened Def Con from 0.209252 to 0.209252
Heightened Def Con from 0.209252 to 0.209252
Heightened Def Con from 0.209252 to 0.209252
Heightened Def Con from 0.209252 to 0.209252
Heightened Def Con from 0.209252 to 0.209252
Heightened Def Con from 0.209252 to 0.209252
Heightened Def Con from 0.209253 to 0.209253
Heightened Def Con from 0.209253 to 0.209253
Heightened Def Con from 0.209253 +++to 0.209253
Heightened Def Con from 0.209253 to 0.209253
Heightened Def Con from 0.209254 to 0.209254
Heightened Def Con from 0.209254 to 0.209254
Heightened Def Con from 0.209254 to 0.209254
Heightened Def Con from 0.209254 to 0.209254
Heightened Def Con from 0.209254 to 0.209254
Heightened Def Con from 0.209255 to 0.209255
Heightened Def Con from 0.209255 to 0.209255
Heightened Def Con from 0.209255 to 0.209255
Heightened Def Con from 0.209255 to 0.209255
Heightened Def Con from 0.209255 to 0.209255
Heightened Def Con from 0.209255 to 0.209255
Heightened Def Con from 0.209255 to 0.209255
Heightened Def Con from 0.209255 to 0.209255
Heightened Def Con from 0.209255 to 0.209255
Heightened Def Con from 0.209256 to 0.209256
Heightened Def Con from 0.209256 to 0.209256
Heightened Def Con from 0.209256 to 0.209256
Heightened Def Con from 0.209257 to 0.209257
Heightened Def Con from 0.209257 to 0.209257
Heightened Def Con from 0.209257 to 0.209257
Heightened Def Con from 0.209257 to 0.209257
Heightened Def Con from 0.209257 to 0.209257
Heightened Def Con from 0.209257 to 0.209257
Heightened Def Con from 0.209257 to 0.209257
Heightened Def Con from 0.209258 to 0.209258
Heightened Def Con from 0.209258 to 0.209258
Heightened Def Con from 0.209259 to 0.209259
Heightened Def Con from 0.209259 to 0.209259
Heightened Def Con from 0.209259 to 0.209259
Heightened Def Con from 0.209259 to 0.209259
Heightened Def Con from 0.209259 to 0.209259
Heightened Def Con from 0.209259 to 0.209259
Heightened Def Con from 0.20926 to 0.20926
Heightened Def Con from 0.20926 to 0.20926
Heightened Def Con from 0.20926 to 0.20926
Heightened Def Con from 0.20926 to 0.20926
Heightened Def Con from 0.20926 to 0.20926
Heightened Def Con from 0.20926 to 0.20926
Heightened Def Con from 0.20926 to 0.20926
Heightened Def Con from 0.20926 to 0.20926
Heightened Def Con from 0.209873 to 0.209873
Heightened Def Con from 0.209873 to 0.209873
Heightened Def Con from 0.209873 to 0.209873
Heightened Def Con from 0.209873 to 0.209873
Heightened Def Con from 0.209873 to 0.209873
Heightened Def Con from 0.209873 to 0.209873
Heightened Def Con from 0.209873 to 0.209873
Heightened Def Con from 0.209873 to 0.209873
Heightened Def Con from 0.209873 to 0.209873
Heightened Def Con from 0.209873 to 0.209873
Heightened Def Con from 0.209873 to 0.209873
Heightened Def Con from 0.209874 to 0.209874
Heightened Def Con from 0.209874 to 0.209874
Heightened Def Con from 0.209874 to 0.209874
Heightened Def Con from 0.209874 to 0.209874
Heightened Def Con from 0.209874 to 0.209874
Heightened Def Con from 0.209874 to 0.209874
Heightened Def Con from 0.209874 to 0.209874
Heightened Def Con from 0.209874 to 0.209874
Heightened Def Con from 0.209874 to 0.209874
Heightened Def Con from 0.209875 to 0.209875
Heightened Def Con from 0.209875 to 0.209875
Heightened Def Con from 0.209875 to 0.209875
Heightened Def Con from 0.209875 to 0.209875
Heightened Def Con from 0.209875 to 0.209875
Heightened Def Con from 0.209875 to 0.209875
Heightened Def Con from 0.209875 to 0.209875
Heightened Def Con from 0.209876 to 0.209876
Heightened Def Con from 0.209876 to 0.209876
Heightened Def Con from 0.209876 to 0.209876
Heightened Def Con from 0.209876 to 0.209876
Heightened Def Con from 0.209876 to 0.209876
Heightened Def Con from 0.209876 to 0.209876
Heightened Def Con from 0.209876 to 0.209876
Heightened Def Con from 0.209876 to 0.209876
Heightened Def Con from 0.209876 to 0.209876
Heightened Def Con from 0.209876 to 0.209876
Heightened Def Con from 0.220074 to 0.220074
Heightened Def Con from 0.228612 to 0.228612
Heightened Def Con from 0.229298 to 0.229298
Heightened Def Con from 0.229298 to 0.229298
Heightened Def Con from 0.229298 to 0.229298
Heightened Def Con from 0.229298 to 0.229298
Heightened Def Con from 0.229298 to 0.229298
Heightened Def Con from 0.229298 to 0.229298
Heightened Def Con from 0.229298 to 0.229298
Heightened Def Con from 0.229298 to 0.229298
Heightened Def Con from 0.229298 to 0.229298
Heightened Def Con from 0.229299 to 0.229299
Heightened Def Con from 0.229299 to 0.229299
Heightened Def Con from 0.229299 to 0.229299
Heightened Def Con from 0.229299 to 0.229299
Heightened Def Con from 0.229299 to 0.229299
Heightened Def Con from 0.229299 to 0.229299
Heightened Def Con from 0.229299 to 0.229299
Heightened Def Con from 0.2293 to 0.2293
Heightened Def Con from 0.2293 to 0.2293
Heightened Def Con from 0.2293 to 0.2293
Heightened Def Con from 0.2293 to 0.2293
Heightened Def Con from 0.2293 to 0.2293
Heightened Def Con from 0.2293 to 0.2293
Heightened Def Con from 0.229301 to 0.229301
Heightened Def Con from 0.229301 to 0.229301
Heightened Def Con from 0.229302 to 0.229302
Heightened Def Con from 0.229302 to 0.229302
Heightened Def Con from 0.229302 to 0.229302
Heightened Def Con from 0.229302 to 0.229302
Heightened Def Con from 0.229302 to 0.229302
Heightened Def Con from 0.229302 to 0.229302
Heightened Def Con from 0.229302 to 0.229302
Heightened Def Con from 0.229303 to 0.229303
Heightened Def Con from 0.229303 to 0.229303
Heightened Def Con from 0.229303 to 0.229303
Heightened Def Con from 0.229303 to 0.229303
Heightened Def Con from 0.229303 to 0.229303
Heightened Def Con from 0.229303 to 0.229303
Heightened Def Con from 0.229303 to 0.229303
Heightened Def Con from 0.229303 to 0.229303
Heightened Def Con from 0.229303 to 0.229303
Heightened Def Con from 0.229304 to 0.229304
Heightened Def Con from 0.229304 to 0.229304
Heightened Def Con from 0.229304 to 0.229304
Heightened Def Con from 0.229304 to 0.229304
Heightened Def Con from 0.229304 to 0.229304
Heightened Def Con from 0.229304 to 0.229304
Heightened Def Con from 0.229305 to 0.229305
Heightened Def Con from 0.229305 to 0.229305
Heightened Def Con from 0.229305 to 0.229305
Heightened Def Con from 0.229305 to 0.229305
Heightened Def Con from 0.229305 to 0.229305
Heightened Def Con from 0.229305 to 0.229305
Heightened Def Con from 0.229306 to 0.229306
Heightened Def Con from 0.229306 to 0.229306
Heightened Def Con from 0.229306 to 0.229306
Heightened Def Con from 0.229306 to 0.229306
Heightened Def Con from 0.229306 to 0.229306
Heightened Def Con from 0.229306 to 0.229306
Heightened Def Con from 0.229306 to 0.229306
Heightened Def Con from 0.229306 to 0.229306
Heightened Def Con from 0.229306 to 0.229306
Heightened Def Con from 0.229306 to 0.229306
Heightened Def Con from 0.229307 to 0.229307
Heightened Def Con from 0.229307 to 0.229307
Heightened Def Con from 0.229307 to 0.229307
Heightened Def Con from 0.229307 to 0.229307
Heightened Def Con from 0.229307 to 0.229307
Heightened Def Con from 0.229307 to 0.229307
Heightened Def Con from 0.229307 to 0.229307
Heightened Def Con from 0.229307 to 0.229307
Heightened Def Con from 0.229308 to 0.229308
Heightened Def Con from 0.229308 to 0.229308
Heightened Def Con from 0.229308 to 0.229308
Heightened Def Con from 0.229308 to 0.229308
Heightened Def Con from 0.229308 to 0.229308
Heightened Def Con from 0.229308 to 0.229308
Heightened Def Con from 0.229556 to 0.229556
Heightened Def Con from 0.229732 to 0.229732
Heightened Def Con from 0.229909 to 0.229909
Heightened Def Con from 0.229909 to 0.229909
Heightened Def Con from 0.229909 to 0.229909
Heightened Def Con from 0.229909 to 0.229909
Heightened Def Con from 0.229909 to 0.229909
Heightened Def Con from 0.229909 to 0.229909
Heightened Def Con from 0.229909 to 0.229909
Heightened Def Con from 0.22991 to 0.22991
Heightened Def Con from 0.22991 to 0.22991
Heightened Def Con from 0.22991 to 0.22991
Heightened Def Con from 0.22991 to 0.22991
Heightened Def Con from 0.22991 to 0.22991
Heightened Def Con from 0.22991 to 0.22991
Heightened Def Con from 0.22991 to 0.22991
Heightened Def Con from 0.22991 to 0.22991
Heightened Def Con from 0.229911 to 0.229911
Heightened Def Con from 0.229911 to 0.229911
Heightened Def Con from 0.229911 to 0.229911
Heightened Def Con from 0.229911 to 0.229911
Heightened Def Con from 0.229911 to 0.229911
Heightened Def Con from 0.229911 to 0.229911
Heightened Def Con from 0.229911 to 0.229911
Heightened Def Con from 0.229911 to 0.229911
Heightened Def Con from 0.229912 to 0.229912
Heightened Def Con from 0.229912 to 0.229912
Heightened Def Con from 0.229912 to 0.229912
Heightened Def Con from 0.229912 to 0.229912
Heightened Def Con from 0.229912 to 0.229912
Heightened Def Con from 0.229912 to 0.229912
Heightened Def Con from 0.229912 to 0.229912
Heightened Def Con from 0.229912 to 0.229912
Heightened Def Con from 0.229912 to 0.229912
Heightened Def Con from 0.229912 to 0.229912
Heightened Def Con from 0.238836 +++++++++++++++++++++++to 0.238836
Heightened Def Con from 0.240036 to 0.240036
Heightened Def Con from 0.240094 to 0.240094
Heightened Def Con from 0.240361 to 0.240361
Heightened Def Con from 0.247942 to 0.247942
Heightened Def Con from 0.248626 to 0.248626
Heightened Def Con from 0.249343 to 0.249343
Heightened Def Con from 0.249343 to 0.249343
Heightened Def Con from 0.249343 to 0.249343
Heightened Def Con from 0.249343 to 0.249343
Heightened Def Con from 0.249343 to 0.249343
Heightened Def Con from 0.249343 to 0.249343
Heightened Def Con from 0.249344 to 0.249344
Heightened Def Con from 0.249344 to 0.249344
Heightened Def Con from 0.249344 to 0.249344
Heightened Def Con from 0.249344 to 0.249344
Heightened Def Con from 0.249344 to 0.249344
Heightened Def Con from 0.249345 to 0.249345
Heightened Def Con from 0.249345 to 0.249345
Heightened Def Con from 0.249345 to 0.249345
Heightened Def Con from 0.249345 to 0.249345
Heightened Def Con from 0.249346 to 0.249346
Heightened Def Con from 0.249346 to 0.249346
Heightened Def Con from 0.249346 to 0.249346
Heightened Def Con from 0.249346 to 0.249346
Heightened Def Con from 0.249346 to 0.249346
Heightened Def Con from 0.249346 to 0.249346
Heightened Def Con from 0.249346 to 0.249346
Heightened Def Con from 0.249346 to 0.249346
Heightened Def Con from 0.249346 to 0.249346
Heightened Def Con from 0.249346 to 0.249346
Heightened Def Con from 0.249346 to 0.249346
Heightened Def Con from 0.249347 to 0.249347
Heightened Def Con from 0.249347 to 0.249347
Heightened Def Con from 0.249347 to 0.249347
Heightened Def Con from 0.249347 to 0.249347
Heightened Def Con from 0.249347 to 0.249347
Heightened Def Con from 0.249347 to 0.249347
Heightened Def Con from 0.249347 to 0.249347
Heightened Def Con from 0.249347 to 0.249347
Heightened Def Con from 0.249348 to 0.249348
Heightened Def Con from 0.249348 to 0.249348
Heightened Def Con from 0.249348 to 0.249348
Heightened Def Con from 0.249348 to 0.249348
Heightened Def Con from 0.249348 to 0.249348
Heightened Def Con from 0.249348 to 0.249348
Heightened Def Con from 0.249348 to 0.249348
Heightened Def Con from 0.249348 to 0.249348
Heightened Def Con from 0.249348 to 0.249348
Heightened Def Con from 0.249348 to 0.249348
Heightened Def Con from 0.249348 to 0.249348
Heightened Def Con from 0.249348 to 0.249348
Heightened Def Con from 0.249349 to 0.249349
Heightened Def Con from 0.249349 to 0.249349
Heightened Def Con from 0.249349 to 0.249349
Heightened Def Con from 0.249349 to 0.249349
Heightened Def Con from 0.249349 to 0.249349
Heightened Def Con from 0.249349 to 0.249349
Heightened Def Con from 0.249349 to 0.249349
Heightened Def Con from 0.24935 to 0.24935
Heightened Def Con from 0.24935 to 0.24935
Heightened Def Con from 0.24935 to 0.24935
Heightened Def Con from 0.24935 to 0.24935
Heightened Def Con from 0.24935 to 0.24935
Heightened Def Con from 0.24935 to 0.24935
Heightened Def Con from 0.249351 to 0.249351
Heightened Def Con from 0.249351 to 0.249351
Heightened Def Con from 0.249351 to 0.249351
Heightened Def Con from 0.249351 to 0.249351
Heightened Def Con from 0.249351 to 0.249351
Heightened Def Con from 0.249351 to 0.249351
Heightened Def Con from 0.249352 to 0.249352
Heightened Def Con from 0.249352 to 0.249352
Heightened Def Con from 0.249352 to 0.249352
Heightened Def Con from 0.249352 to 0.249352
Heightened Def Con from 0.249352 to 0.249352
Heightened Def Con from 0.249353 to 0.249353
Heightened Def Con from 0.249353 to 0.249353
Heightened Def Con from 0.249353 to 0.249353
Heightened Def Con from 0.249353 to 0.249353
Heightened Def Con from 0.249353 to 0.249353
Heightened Def Con from 0.249353 to 0.249353
Heightened Def Con from 0.249353 to 0.249353
Heightened Def Con from 0.249353 to 0.249353
Heightened Def Con from 0.249353 to 0.249353
Heightened Def Con from 0.249353 to 0.249353
Heightened Def Con from 0.249353 to 0.249353
Heightened Def Con from 0.249354 to 0.249354
Heightened Def Con from 0.249354 to 0.249354
Heightened Def Con from 0.249586 to 0.249586
Heightened Def Con from 0.249586 to 0.249586
Heightened Def Con from 0.249751 to 0.249751
Heightened Def Con from 0.249939 to 0.249939
Heightened Def Con from 0.249939 to 0.249939
Heightened Def Con from 0.249939 to 0.249939
Heightened Def Con from 0.249939 to 0.249939
Heightened Def Con from 0.249939 to 0.249939
Heightened Def Con from 0.249939 to 0.249939
Heightened Def Con from 0.24994 to 0.24994
Heightened Def Con from 0.24994 to 0.24994
Heightened Def Con from 0.24994 to 0.24994
Heightened Def Con from 0.24994 to 0.24994
Heightened Def Con from 0.24994 to 0.24994
Heightened Def Con from 0.24994 to 0.24994
Heightened Def Con from 0.24994 to 0.24994
Heightened Def Con from 0.249941 to 0.249941
Heightened Def Con from 0.249941 to 0.249941
Heightened Def Con from 0.249941 to 0.249941
Heightened Def Con from 0.249941 to 0.249941
Heightened Def Con from 0.249941 to 0.249941
Heightened Def Con from 0.249941 to 0.249941
Heightened Def Con from 0.249941 to 0.249941
Heightened Def Con from 0.249941 to 0.249941
Heightened Def Con from 0.249942 to 0.249942
Heightened Def Con from 0.249942 to 0.249942
Heightened Def Con from 0.249942 to 0.249942
Heightened Def Con from 0.249942 to 0.249942
Heightened Def Con from 0.260067 +to 0.260067
Heightened Def Con from 0.260199 to 0.260199
Heightened Def Con from 0.260434 +to 0.260434
Heightened Def Con from 0.269386 to 0.269386
Heightened Def Con from 0.269386 to 0.269386
Heightened Def Con from 0.269386 to 0.269386
Heightened Def Con from 0.269387 to 0.269387
Heightened Def Con from 0.269387 to 0.269387
Heightened Def Con from 0.269387 to 0.269387
Heightened Def Con from 0.269387 to 0.269387
Heightened Def Con from 0.269388 to 0.269388
Heightened Def Con from 0.269388 to 0.269388
Heightened Def Con from 0.269388 to 0.269388
Heightened Def Con from 0.269388 to 0.269388
Heightened Def Con from 0.269388 to 0.269388
Heightened Def Con from 0.269388 to 0.269388
Heightened Def Con from 0.269389 to 0.269389
Heightened Def Con from 0.269389 to 0.269389
Heightened Def Con from 0.269389 to 0.269389
Heightened Def Con from 0.269389 to 0.269389
Heightened Def Con from 0.269389 to 0.269389
Heightened Def Con from 0.269389 to 0.269389
Heightened Def Con from 0.269389 to 0.269389
Heightened Def Con from 0.269389 to 0.269389
Heightened Def Con from 0.26939 to 0.26939
Heightened Def Con from 0.26939 to 0.26939
Heightened Def Con from 0.26939 to 0.26939
Heightened Def Con from 0.26939 to 0.26939
Heightened Def Con from 0.26939 to 0.26939
Heightened Def Con from 0.26939 to 0.26939
Heightened Def Con from 0.26939 to 0.26939
Heightened Def Con from 0.26939 to 0.26939
Heightened Def Con from 0.26939 to 0.26939
Heightened Def Con from 0.269391 to 0.269391
Heightened Def Con from 0.269391 to 0.269391
Heightened Def Con from 0.269391 to 0.269391
Heightened Def Con from 0.269391 to 0.269391
Heightened Def Con from 0.269391 to 0.269391
Heightened Def Con from 0.269391 to 0.269391
Heightened Def Con from 0.269391 to 0.269391
Heightened Def Con from 0.269391 to 0.269391
Heightened Def Con from 0.269391 to 0.269391
Heightened Def Con from 0.269391 to 0.269391
Heightened Def Con from 0.269391 to 0.269391
Heightened Def Con from 0.269391 to 0.269391
Heightened Def Con from 0.269391 to 0.269391
Heightened Def Con from 0.269391 to 0.269391
Heightened Def Con from 0.269392 to 0.269392
Heightened Def Con from 0.269392 to 0.269392
Heightened Def Con from 0.269392 to 0.269392
Heightened Def Con from 0.269392 to 0.269392
Heightened Def Con from 0.269393 to 0.269393
Heightened Def Con from 0.269393 to 0.269393
Heightened Def Con from 0.269393 to 0.269393
Heightened Def Con from 0.269393 to 0.269393
Heightened Def Con from 0.269393 to 0.269393
Heightened Def Con from 0.269393 to 0.269393
Heightened Def Con from 0.269394 to 0.269394
Heightened Def Con from 0.269394 to 0.269394
Heightened Def Con from 0.269394 to 0.269394
Heightened Def Con from 0.269394 to 0.269394
Heightened Def Con from 0.269395 to 0.269395
Heightened Def Con from 0.269395 to 0.269395
Heightened Def Con from 0.269395 to 0.269395
Heightened Def Con from 0.269395 to 0.269395
Heightened Def Con from 0.269395 to 0.269395
Heightened Def Con from 0.269396 to 0.269396
Heightened Def Con from 0.269396 to 0.269396
Heightened Def Con from 0.269396 to 0.269396
Heightened Def Con from 0.269396 to 0.269396
Heightened Def Con from 0.269397 to 0.269397
Heightened Def Con from 0.269776 to 0.269776
Heightened Def Con from 0.269963 to 0.269963
Heightened Def Con from 0.269963 to 0.269963
Heightened Def Con from 0.269963 to 0.269963
Heightened Def Con from 0.269963 to 0.269963
Heightened Def Con from 0.269963 to 0.269963
Heightened Def Con from 0.269963 to 0.269963
Heightened Def Con from 0.269963 to 0.269963
Heightened Def Con from 0.269964 to 0.269964
Heightened Def Con from 0.269964 to 0.269964
Heightened Def Con from 0.269964 to 0.269964
Heightened Def Con from 0.269964 to 0.269964
Heightened Def Con from 0.269964 to 0.269964
Heightened Def Con from 0.269964 to 0.269964
Heightened Def Con from 0.269964 to 0.269964
Heightened Def Con from 0.269965 to 0.269965
Heightened Def Con from 0.269965 to 0.269965
Heightened Def Con from 0.269965 to 0.269965
Heightened Def Con from 0.269965 to 0.269965
Heightened Def Con from 0.269965 to 0.269965
Heightened Def Con from 0.269965 to 0.269965
Heightened Def Con from 0.269966 to 0.269966
Heightened Def Con from 0.269966 to 0.269966
Heightened Def Con from 0.269966 to 0.269966
Heightened Def Con from 0.269966 to 0.269966
Heightened Def Con from 0.269966 to 0.269966
Heightened Def Con from 0.269966 to 0.269966
Heightened Def Con from 0.269966 to 0.269966
Heightened Def Con from 0.269966 to 0.269966
Heightened Def Con from 0.269966 to 0.269966
Heightened Def Con from 0.279993 to 0.279993
Heightened Def Con from 0.280243 to 0.280243
Heightened Def Con from 0.287514 to 0.287514
Heightened Def Con from 0.288036 to 0.288036
Heightened Def Con from 0.28854 to 0.28854
Heightened Def Con from 0.289427 to 0.289427
Heightened Def Con from 0.289427 to 0.289427
Heightened Def Con from 0.289427 to 0.289427
Heightened Def Con from 0.289427 to 0.289427
Heightened Def Con from 0.289427 to 0.289427
Heightened Def Con from 0.289427 to 0.289427
Heightened Def Con from 0.289428 to 0.289428
Heightened Def Con from 0.289428 to 0.289428
Heightened Def Con from 0.289428 to 0.289428
Heightened Def Con from 0.289428 to 0.289428
Heightened Def Con from 0.289428 to 0.289428
Heightened Def Con from 0.289428 to 0.289428
Heightened Def Con from 0.289428 to 0.289428
Heightened Def Con from 0.289429 to 0.289429
Heightened Def Con from 0.289429 to 0.289429
Heightened Def Con from 0.289429 to 0.289429
Heightened Def Con from 0.289429 to 0.289429
Heightened Def Con from 0.289429 to 0.289429
Heightened Def Con from 0.289429 to 0.289429
Heightened Def Con from 0.289429 +to 0.289429
Heightened Def Con from 0.28943 to 0.28943
Heightened Def Con from 0.28943 to 0.28943
Heightened Def Con from 0.28943 to 0.28943
Heightened Def Con from 0.289431 to 0.289431
Heightened Def Con from 0.289431 to 0.289431
Heightened Def Con from 0.289431 to 0.289431
Heightened Def Con from 0.289431 to 0.289431
Heightened Def Con from 0.289431 to 0.289431
Heightened Def Con from 0.289431 to 0.289431
Heightened Def Con from 0.289431 to 0.289431
Heightened Def Con from 0.289431 to 0.289431
Heightened Def Con from 0.289432 to 0.289432
Heightened Def Con from 0.289432 to 0.289432
Heightened Def Con from 0.289432 to 0.289432
Heightened Def Con from 0.289432 to 0.289432
Heightened Def Con from 0.289432 to 0.289432
Heightened Def Con from 0.289432 to 0.289432
Heightened Def Con from 0.289432 to 0.289432
Heightened Def Con from 0.289432 to 0.289432
Heightened Def Con from 0.289432 to 0.289432
Heightened Def Con from 0.289432 to 0.289432
Heightened Def Con from 0.289433 to 0.289433
Heightened Def Con from 0.289433 to 0.289433
Heightened Def Con from 0.289433 to 0.289433
Heightened Def Con from 0.289433 to 0.289433
Heightened Def Con from 0.289433 to 0.289433
Heightened Def Con from 0.289434 to 0.289434
Heightened Def Con from 0.289434 to 0.289434
Heightened Def Con from 0.289434 to 0.289434
Heightened Def Con from 0.289434 to 0.289434
Heightened Def Con from 0.289434 to 0.289434
Heightened Def Con from 0.289435 to 0.289435
Heightened Def Con from 0.289435 to 0.289435
Heightened Def Con from 0.289435 to 0.289435
Heightened Def Con from 0.289435 to 0.289435
Heightened Def Con from 0.289435 to 0.289435
Heightened Def Con from 0.289435 to 0.289435
Heightened Def Con from 0.289435 to 0.289435
Heightened Def Con from 0.289435 to 0.289435
Heightened Def Con from 0.289435 to 0.289435
Heightened Def Con from 0.289436 to 0.289436
Heightened Def Con from 0.289436 to 0.289436
Heightened Def Con from 0.289436 to 0.289436
Heightened Def Con from 0.289436 to 0.289436
Heightened Def Con from 0.289436 to 0.289436
Heightened Def Con from 0.289436 to 0.289436
Heightened Def Con from 0.289436 to 0.289436
Heightened Def Con from 0.289436 to 0.289436
Heightened Def Con from 0.289437 to 0.289437
Heightened Def Con from 0.289437 to 0.289437
Heightened Def Con from 0.289751 to 0.289751
Heightened Def Con from 0.289784 to 0.289784
Heightened Def Con from 0.2898 to 0.2898
Heightened Def Con from 0.289983 to 0.289983
Heightened Def Con from 0.289983 to 0.289983
Heightened Def Con from 0.289983 to 0.289983
Heightened Def Con from 0.289983 to 0.289983
Heightened Def Con from 0.289983 to 0.289983
Heightened Def Con from 0.289983 to 0.289983
Heightened Def Con from 0.289983 to 0.289983
Heightened Def Con from 0.289984 to 0.289984
Heightened Def Con from 0.289984 to 0.289984
Heightened Def Con from 0.289984 to 0.289984
Heightened Def Con from 0.289984 to 0.289984
Heightened Def Con from 0.289984 to 0.289984
Heightened Def Con from 0.289984 to 0.289984
Heightened Def Con from 0.289984 to 0.289984
Heightened Def Con from 0.289984 to 0.289984
Heightened Def Con from 0.289984 to 0.289984
Heightened Def Con from 0.289984 to 0.289984
Heightened Def Con from 0.289985 to 0.289985
Heightened Def Con from 0.289985 to 0.289985
Heightened Def Con from 0.289985 to 0.289985
Heightened Def Con from 0.289985 to 0.289985
Heightened Def Con from 0.289985 to 0.289985
Heightened Def Con from 0.289986 to 0.289986
Heightened Def Con from 0.289986 to 0.289986
Heightened Def Con from 0.289986 to 0.289986
Heightened Def Con from 0.29864 to 0.29864
Heightened Def Con from 0.299808 to 0.299808
Heightened Def Con from 0.307376 +++++++++++++++++++++to 0.307376
Heightened Def Con from 0.308878 to 0.308878
Heightened Def Con from 0.309466 to 0.309466
Heightened Def Con from 0.309466 to 0.309466
Heightened Def Con from 0.309466 to 0.309466
Heightened Def Con from 0.309466 to 0.309466
Heightened Def Con from 0.309467 to 0.309467
Heightened Def Con from 0.309467 to 0.309467
Heightened Def Con from 0.309467 to 0.309467
Heightened Def Con from 0.309468 to 0.309468
Heightened Def Con from 0.309468 to 0.309468
Heightened Def Con from 0.309468 to 0.309468
Heightened Def Con from 0.309468 to 0.309468
Heightened Def Con from 0.309468 to 0.309468
Heightened Def Con from 0.309468 to 0.309468
Heightened Def Con from 0.309469 to 0.309469
Heightened Def Con from 0.309469 to 0.309469
Heightened Def Con from 0.309469 to 0.309469
Heightened Def Con from 0.309469 to 0.309469
Heightened Def Con from 0.309469 to 0.309469
Heightened Def Con from 0.309469 to 0.309469
Heightened Def Con from 0.309469 to 0.309469
Heightened Def Con from 0.309469 to 0.309469
Heightened Def Con from 0.30947 to 0.30947
Heightened Def Con from 0.30947 to 0.30947
Heightened Def Con from 0.30947 to 0.30947
Heightened Def Con from 0.30947 to 0.30947
Heightened Def Con from 0.30947 to 0.30947
Heightened Def Con from 0.30947 to 0.30947
Heightened Def Con from 0.30947 to 0.30947
Heightened Def Con from 0.30947 to 0.30947
Heightened Def Con from 0.30947 to 0.30947
Heightened Def Con from 0.30947 to 0.30947
Heightened Def Con from 0.309471 to 0.309471
Heightened Def Con from 0.309471 to 0.309471
Heightened Def Con from 0.309471 to 0.309471
Heightened Def Con from 0.309471 to 0.309471
Heightened Def Con from 0.309471 to 0.309471
Heightened Def Con from 0.309471 to 0.309471
Heightened Def Con from 0.309472 to 0.309472
Heightened Def Con from 0.309472 to 0.309472
Heightened Def Con from 0.309472 to 0.309472
Heightened Def Con from 0.309472 to 0.309472
Heightened Def Con from 0.309472 to 0.309472
Heightened Def Con from 0.309472 to 0.309472
Heightened Def Con from 0.309472 to 0.309472
Heightened Def Con from 0.309473 to 0.309473
Heightened Def Con from 0.309473 to 0.309473
Heightened Def Con from 0.309473 to 0.309473
Heightened Def Con from 0.309473 to 0.309473
Heightened Def Con from 0.309473 to 0.309473
Heightened Def Con from 0.309474 to 0.309474
Heightened Def Con from 0.309474 to 0.309474
Heightened Def Con from 0.309474 to 0.309474
Heightened Def Con from 0.309475 to 0.309475
Heightened Def Con from 0.309475 to 0.309475
Heightened Def Con from 0.309475 to 0.309475
Heightened Def Con from 0.309475 to 0.309475
Heightened Def Con from 0.309475 to 0.309475
Heightened Def Con from 0.309475 to 0.309475
Heightened Def Con from 0.309476 to 0.309476
Heightened Def Con from 0.309476 to 0.309476
Heightened Def Con from 0.309476 to 0.309476
Heightened Def Con from 0.309476 to 0.309476
Heightened Def Con from 0.309476 to 0.309476
Heightened Def Con from 0.309647 to 0.309647
Heightened Def Con from 0.309999 to 0.309999
Heightened Def Con from 0.309999 to 0.309999
Heightened Def Con from 0.31 to 0.31
Heightened Def Con from 0.31 to 0.31
Heightened Def Con from 0.31 to 0.31
Heightened Def Con from 0.31 to 0.31
Heightened Def Con from 0.31 to 0.31
Heightened Def Con from 0.31 to 0.31
Heightened Def Con from 0.31 to 0.31
Heightened Def Con from 0.31 to 0.31
Heightened Def Con from 0.310001 to 0.310001
Heightened Def Con from 0.310001 to 0.310001
Heightened Def Con from 0.310001 to 0.310001
Heightened Def Con from 0.310001 to 0.310001
Heightened Def Con from 0.310001 to 0.310001
Heightened Def Con from 0.310001 to 0.310001
Heightened Def Con from 0.310001 to 0.310001
Heightened Def Con from 0.310001 to 0.310001
Heightened Def Con from 0.310001 to 0.310001
Heightened Def Con from 0.310002 to 0.310002
Heightened Def Con from 0.310002 to 0.310002
Heightened Def Con from 0.310002 to 0.310002
Heightened Def Con from 0.310002 to 0.310002
Heightened Def Con from 0.310002 to 0.310002
Heightened Def Con from 0.310002 to 0.310002
Heightened Def Con from 0.310002 to 0.310002
Heightened Def Con from 0.319137 +++++++++++++++++++++++to 0.319137
Heightened Def Con from 0.319955 to 0.319955
Heightened Def Con from 0.320013 to 0.320013
Heightened Def Con from 0.328121 to 0.328121
Heightened Def Con from 0.328618 to 0.328618
Heightened Def Con from 0.329502 to 0.329502
Heightened Def Con from 0.329502 to 0.329502
Heightened Def Con from 0.329503 to 0.329503
Heightened Def Con from 0.329503 to 0.329503
Heightened Def Con from 0.329503 to 0.329503
Heightened Def Con from 0.329503 to 0.329503
Heightened Def Con from 0.329503 to 0.329503
Heightened Def Con from 0.329504 to 0.329504
Heightened Def Con from 0.329504 to 0.329504
Heightened Def Con from 0.329504 to 0.329504
Heightened Def Con from 0.329504 to 0.329504
Heightened Def Con from 0.329504 to 0.329504
Heightened Def Con from 0.329504 to 0.329504
Heightened Def Con from 0.329505 to 0.329505
Heightened Def Con from 0.329505 to 0.329505
Heightened Def Con from 0.329505 to 0.329505
Heightened Def Con from 0.329505 to 0.329505
Heightened Def Con from 0.329505 to 0.329505
Heightened Def Con from 0.329505 to 0.329505
Heightened Def Con from 0.329506 to 0.329506
Heightened Def Con from 0.329506 to 0.329506
Heightened Def Con from 0.329506 to 0.329506
Heightened Def Con from 0.329506 to 0.329506
Heightened Def Con from 0.329506 to 0.329506
Heightened Def Con from 0.329506 to 0.329506
Heightened Def Con from 0.329506 to 0.329506
Heightened Def Con from 0.329506 to 0.329506
Heightened Def Con from 0.329506 to 0.329506
Heightened Def Con from 0.329507 to 0.329507
Heightened Def Con from 0.329507 to 0.329507
Heightened Def Con from 0.329507 to 0.329507
Heightened Def Con from 0.329507 to 0.329507
Heightened Def Con from 0.329507 to 0.329507
Heightened Def Con from 0.329507 to 0.329507
Heightened Def Con from 0.329507 to 0.329507
Heightened Def Con from 0.329507 to 0.329507
Heightened Def Con from 0.329507 to 0.329507
Heightened Def Con from 0.329507 to 0.329507
Heightened Def Con from 0.329507 to 0.329507
Heightened Def Con from 0.329508 to 0.329508
Heightened Def Con from 0.329508 to 0.329508
Heightened Def Con from 0.329508 to 0.329508
Heightened Def Con from 0.329508 to 0.329508
Heightened Def Con from 0.329508 to 0.329508
Heightened Def Con from 0.329508 to 0.329508
Heightened Def Con from 0.329508 to 0.329508
Heightened Def Con from 0.329508 to 0.329508
Heightened Def Con from 0.329509 to 0.329509
Heightened Def Con from 0.329509 to 0.329509
Heightened Def Con from 0.329509 to 0.329509
Heightened Def Con from 0.329509 to 0.329509
Heightened Def Con from 0.329509 to 0.329509
Heightened Def Con from 0.329509 to 0.329509
Heightened Def Con from 0.329509 to 0.329509
Heightened Def Con from 0.32951 to 0.32951
Heightened Def Con from 0.32951 to 0.32951
Heightened Def Con from 0.32951 to 0.32951
Heightened Def Con from 0.32951 to 0.32951
Heightened Def Con from 0.32951 to 0.32951
Heightened Def Con from 0.32951 to 0.32951
Heightened Def Con from 0.32951 to 0.32951
Heightened Def Con from 0.32951 to 0.32951
Heightened Def Con from 0.329511 to 0.329511
Heightened Def Con from 0.329511 to 0.329511
Heightened Def Con from 0.329511 to 0.329511
Heightened Def Con from 0.329511 to 0.329511
Heightened Def Con from 0.329511 to 0.329511
Heightened Def Con from 0.329511 to 0.329511
Heightened Def Con from 0.329511 to 0.329511
Heightened Def Con from 0.329511 to 0.329511
Heightened Def Con from 0.329511 to 0.329511
Heightened Def Con from 0.329512 to 0.329512
Heightened Def Con from 0.329512 to 0.329512
Heightened Def Con from 0.329512 to 0.329512
Heightened Def Con from 0.329512 to 0.329512
Heightened Def Con from 0.329512 to 0.329512
Heightened Def Con from 0.329821 to 0.329821
Heightened Def Con from 0.330012 to 0.330012
Heightened Def Con from 0.330012 to 0.330012
Heightened Def Con from 0.330013 to 0.330013
Heightened Def Con from 0.330013 to 0.330013
Heightened Def Con from 0.330013 to 0.330013
Heightened Def Con from 0.330013 to 0.330013
Heightened Def Con from 0.330013 to 0.330013
Heightened Def Con from 0.330013 to 0.330013
Heightened Def Con from 0.330013 to 0.330013
Heightened Def Con from 0.330014 to 0.330014
Heightened Def Con from 0.330014 to 0.330014
Heightened Def Con from 0.330014 to 0.330014
Heightened Def Con from 0.330014 to 0.330014
Heightened Def Con from 0.330014 to 0.330014
Heightened Def Con from 0.330014 to 0.330014
Heightened Def Con from 0.330014 to 0.330014
Heightened Def Con from 0.330014 to 0.330014
Heightened Def Con from 0.330014 to 0.330014
Heightened Def Con from 0.330014 to 0.330014
Heightened Def Con from 0.330015 to 0.330015
Heightened Def Con from 0.330015 to 0.330015
Heightened Def Con from 0.330015 to 0.330015
Heightened Def Con from 0.330015 to 0.330015
Heightened Def Con from 0.330015 to 0.330015
Heightened Def Con from 0.330015 to 0.330015
Heightened Def Con from 0.33904 +++++++++++++++++++++++to 0.33904
Heightened Def Con from 0.339516 to 0.339516
Heightened Def Con from 0.339907 to 0.339907
Heightened Def Con from 0.339936 to 0.339936
Heightened Def Con from 0.340275 to 0.340275
Heightened Def Con from 0.348159 to 0.348159
Heightened Def Con from 0.348951 to 0.348951
Heightened Def Con from 0.349537 to 0.349537
Heightened Def Con from 0.349538 to 0.349538
Heightened Def Con from 0.349538 to 0.349538
Heightened Def Con from 0.349538 to 0.349538
Heightened Def Con from 0.349538 to 0.349538
Heightened Def Con from 0.349538 to 0.349538
Heightened Def Con from 0.349539 to 0.349539
Heightened Def Con from 0.349539 to 0.349539
Heightened Def Con from 0.349539 to 0.349539
Heightened Def Con from 0.349539 to 0.349539
Heightened Def Con from 0.349539 to 0.349539
[...]
Heightened Def Con from 0.93005 to 0.93005
Heightened Def Con from 0.93005 to 0.93005
Heightened Def Con from 0.93005 to 0.93005
Heightened Def Con from 0.93005 to 0.93005
Heightened Def Con from 0.93005 to 0.93005
Heightened Def Con from 0.93005 to 0.93005
Heightened Def Con from 0.93005 to 0.93005
Heightened Def Con from 0.93005 to 0.93005
Heightened Def Con from 0.93005 to 0.93005
Heightened Def Con from 0.930051 to 0.930051
Heightened Def Con from 0.930051 to 0.930051
Heightened Def Con from 0.930051 to 0.930051
Heightened Def Con from 0.930051 to 0.930051
Heightened Def Con from 0.930051 to 0.930051
Heightened Def Con from 0.930051 to 0.930051
Heightened Def Con from 0.930051 to 0.930051
Heightened Def Con from 0.930051 to 0.930051
Heightened Def Con from 0.930051 to 0.930051
Heightened Def Con from 0.930051 to 0.930051
Heightened Def Con from 0.930052 to 0.930052
Heightened Def Con from 0.930052 to 0.930052
Heightened Def Con from 0.930052 to 0.930052
Heightened Def Con from 0.930052 to 0.930052
Heightened Def Con from 0.930052 to 0.930052
Heightened Def Con from 0.930052 to 0.930052
Heightened Def Con from 0.930052 to 0.930052
Heightened Def Con from 0.930052 to 0.930052
Heightened Def Con from 0.930053 to 0.930053
Heightened Def Con from 0.930053 to 0.930053
Heightened Def Con from 0.930053 to 0.930053
Heightened Def Con from 0.930053 to 0.930053
Heightened Def Con from 0.930054 to 0.930054
Heightened Def Con from 0.930054 to 0.930054
Heightened Def Con from 0.930054 to 0.930054
Heightened Def Con from 0.930054 to 0.930054
Heightened Def Con from 0.930054 to 0.930054
Heightened Def Con from 0.930054 to 0.930054
Heightened Def Con from 0.930054 to 0.930054
Heightened Def Con from 0.930054 to 0.930054
Heightened Def Con from 0.930054 to 0.930054
Heightened Def Con from 0.930054 to 0.930054
Heightened Def Con from 0.930055 to 0.930055
Heightened Def Con from 0.930055 to 0.930055
Heightened Def Con from 0.930055 to 0.930055
Heightened Def Con from 0.930055 to 0.930055
Heightened Def Con from 0.930055 to 0.930055
Heightened Def Con from 0.930055 to 0.930055
Heightened Def Con from 0.930055 to 0.930055
Heightened Def Con from 0.930055 to 0.930055
Heightened Def Con from 0.930073 to 0.930073
Heightened Def Con from 0.930073 to 0.930073
Heightened Def Con from 0.930073 to 0.930073
Heightened Def Con from 0.930073 to 0.930073
Heightened Def Con from 0.930073 to 0.930073
Heightened Def Con from 0.930073 to 0.930073
Heightened Def Con from 0.930073 to 0.930073
Heightened Def Con from 0.930073 to 0.930073
Heightened Def Con from 0.930073 to 0.930073
Heightened Def Con from 0.930073 to 0.930073
Heightened Def Con from 0.930073 to 0.930073
Heightened Def Con from 0.930074 to 0.930074
Heightened Def Con from 0.930074 to 0.930074
Heightened Def Con from 0.930074 to 0.930074
Heightened Def Con from 0.930074 to 0.930074
Heightened Def Con from 0.930074 to 0.930074
Heightened Def Con from 0.930074 to 0.930074
Heightened Def Con from 0.930075 to 0.930075
Heightened Def Con from 0.930075 to 0.930075
Heightened Def Con from 0.930075 to 0.930075
Heightened Def Con from 0.930075 to 0.930075
Heightened Def Con from 0.930075 to 0.930075
Heightened Def Con from 0.930076 to 0.930076
Heightened Def Con from 0.930076 to 0.930076
Heightened Def Con from 0.930076 to 0.930076
Heightened Def Con from 0.930076 to 0.930076
Heightened Def Con from 0.930076 to 0.930076
Heightened Def Con from 0.930076 to 0.930076
Heightened Def Con from 0.930076 to 0.930076
Heightened Def Con from 0.930076 to 0.930076
Heightened Def Con from 0.939836 to 0.939836
Heightened Def Con from 0.939945 +to 0.939945
Heightened Def Con from 0.949057 to 0.949057
Heightened Def Con from 0.949721 to 0.949721
Heightened Def Con from 0.949941 to 0.949941
Heightened Def Con from 0.950052 to 0.950052
Heightened Def Con from 0.950052 to 0.950052
Heightened Def Con from 0.950052 to 0.950052
Heightened Def Con from 0.950052 to 0.950052
Heightened Def Con from 0.950053 to 0.950053
Heightened Def Con from 0.950053 to 0.950053
Heightened Def Con from 0.950053 to 0.950053
Heightened Def Con from 0.950053 to 0.950053
Heightened Def Con from 0.950053 to 0.950053
Heightened Def Con from 0.950054 to 0.950054
Heightened Def Con from 0.950054 to 0.950054
Heightened Def Con from 0.950054 to 0.950054
Heightened Def Con from 0.950054 to 0.950054
Heightened Def Con from 0.950054 to 0.950054
Heightened Def Con from 0.950054 to 0.950054
Heightened Def Con from 0.950054 to 0.950054
Heightened Def Con from 0.950054 to 0.950054
Heightened Def Con from 0.950055 to 0.950055
Heightened Def Con from 0.950055 to 0.950055
Heightened Def Con from 0.950055 to 0.950055
Heightened Def Con from 0.950055 to 0.950055
Heightened Def Con from 0.950055 to 0.950055
Heightened Def Con from 0.950055 to 0.950055
Heightened Def Con from 0.950055 to 0.950055
Heightened Def Con from 0.950055 to 0.950055
Heightened Def Con from 0.950055 to 0.950055
Heightened Def Con from 0.950055 to 0.950055
Heightened Def Con from 0.950055 to 0.950055
Heightened Def Con from 0.950055 to 0.950055
Heightened Def Con from 0.950055 to 0.950055
Heightened Def Con from 0.950055 to 0.950055
Heightened Def Con from 0.950056 to 0.950056
Heightened Def Con from 0.950056 to 0.950056
Heightened Def Con from 0.950056 to 0.950056
Heightened Def Con from 0.950056 +to 0.950056
Heightened Def Con from 0.950056 +to 0.950056
Heightened Def Con from 0.950056 +to 0.950056
Heightened Def Con from 0.950056 to 0.950056
Heightened Def Con from 0.950056 to 0.950056
Heightened Def Con from 0.950056 to 0.950056
Heightened Def Con from 0.950056 to 0.950056
Heightened Def Con from 0.950056 to 0.950056
Heightened Def Con from 0.950056 to 0.950056
Heightened Def Con from 0.950056 to 0.950056
Heightened Def Con from 0.950056 to 0.950056
Heightened Def Con from 0.950056 to 0.950056
Heightened Def Con from 0.950056 to 0.950056
Heightened Def Con from 0.950056 to 0.950056
Heightened Def Con from 0.950057 to 0.950057
Heightened Def Con from 0.950057 to 0.950057
Heightened Def Con from 0.950057 to 0.950057
Heightened Def Con from 0.950057 to 0.950057
Heightened Def Con from 0.950057 to 0.950057
Heightened Def Con from 0.950057 to 0.950057
Heightened Def Con from 0.950057 to 0.950057
Heightened Def Con from 0.950057 to 0.950057
Heightened Def Con from 0.950057 to 0.950057
Heightened Def Con from 0.950057 to 0.950057
Heightened Def Con from 0.950058 to 0.950058
Heightened Def Con from 0.950058 to 0.950058
Heightened Def Con from 0.950058 to 0.950058
Heightened Def Con from 0.950058 to 0.950058
Heightened Def Con from 0.950058 to 0.950058
Heightened Def Con from 0.950058 to 0.950058
Heightened Def Con from 0.950058 to 0.950058
Heightened Def Con from 0.950058 to 0.950058
Heightened Def Con from 0.950058 to 0.950058
Heightened Def Con from 0.950058 to 0.950058
Heightened Def Con from 0.950059 to 0.950059
Heightened Def Con from 0.950059 to 0.950059
Heightened Def Con from 0.950059 to 0.950059
Heightened Def Con from 0.950059 to 0.950059
Heightened Def Con from 0.950059 to 0.950059
Heightened Def Con from 0.950059 to 0.950059
Heightened Def Con from 0.950059 to 0.950059
Heightened Def Con from 0.950059 to 0.950059
Heightened Def Con from 0.950059 to 0.950059
Heightened Def Con from 0.950059 to 0.950059
Heightened Def Con from 0.950059 to 0.950059
Heightened Def Con from 0.950059 to 0.950059
Heightened Def Con from 0.950059 to 0.950059
Heightened Def Con from 0.950059 to 0.950059
Heightened Def Con from 0.95006 to 0.95006
Heightened Def Con from 0.95006 to 0.95006
Heightened Def Con from 0.95006 to 0.95006
Heightened Def Con from 0.95006 to 0.95006
Heightened Def Con from 0.95006 to 0.95006
Heightened Def Con from 0.95006 to 0.95006
Heightened Def Con from 0.95006 to 0.95006
Heightened Def Con from 0.95006 to 0.95006
Heightened Def Con from 0.95006 to 0.95006
Heightened Def Con from 0.950061 to 0.950061
Heightened Def Con from 0.950061 to 0.950061
Heightened Def Con from 0.950061 to 0.950061
Heightened Def Con from 0.950061 to 0.950061
Heightened Def Con from 0.950061 to 0.950061
Heightened Def Con from 0.950061 to 0.950061
Heightened Def Con from 0.950061 to 0.950061
Heightened Def Con from 0.950061 to 0.950061
Heightened Def Con from 0.950061 to 0.950061
Heightened Def Con from 0.950061 to 0.950061
Heightened Def Con from 0.950062 to 0.950062
Heightened Def Con from 0.950062 to 0.950062
Heightened Def Con from 0.950062 to 0.950062
Heightened Def Con from 0.950062 to 0.950062
Heightened Def Con from 0.950062 to 0.950062
Heightened Def Con from 0.950062 to 0.950062
Heightened Def Con from 0.950062 to 0.950062
Heightened Def Con from 0.950062 to 0.950062
Heightened Def Con from 0.950063 to 0.950063
Heightened Def Con from 0.950073 to 0.950073
Heightened Def Con from 0.950073 to 0.950073
Heightened Def Con from 0.950073 to 0.950073
Heightened Def Con from 0.950074 to 0.950074
Heightened Def Con from 0.950074 to 0.950074
Heightened Def Con from 0.950074 to 0.950074
Heightened Def Con from 0.950074 to 0.950074
Heightened Def Con from 0.950074 to 0.950074
Heightened Def Con from 0.950074 to 0.950074
Heightened Def Con from 0.950074 to 0.950074
Heightened Def Con from 0.950074 to 0.950074
Heightened Def Con from 0.950074 to 0.950074
Heightened Def Con from 0.950074 to 0.950074
Heightened Def Con from 0.950074 to 0.950074
Heightened Def Con from 0.950075 to 0.950075
Heightened Def Con from 0.950075 to 0.950075
Heightened Def Con from 0.950075 to 0.950075
Heightened Def Con from 0.950075 to 0.950075
Heightened Def Con from 0.950075 to 0.950075
Heightened Def Con from 0.950075 to 0.950075
Heightened Def Con from 0.950075 to 0.950075
Heightened Def Con from 0.950076 to 0.950076
Heightened Def Con from 0.950076 to 0.950076
Heightened Def Con from 0.950076 to 0.950076
Heightened Def Con from 0.950076 to 0.950076
Heightened Def Con from 0.950076 to 0.950076
Heightened Def Con from 0.950076 to 0.950076
Heightened Def Con from 0.950076 to 0.950076
Heightened Def Con from 0.950076 to 0.950076
Heightened Def Con from 0.950077 to 0.950077
Heightened Def Con from 0.950077 to 0.950077
Heightened Def Con from 0.950077 to 0.950077
Heightened Def Con from 0.950077 to 0.950077
Heightened Def Con from 0.958981 to 0.958981
Heightened Def Con from 0.959325 to 0.959325
Heightened Def Con from 0.959725 to 0.959725
Heightened Def Con from 0.969942 +to 0.969942
Heightened Def Con from 0.970059 to 0.970059
Heightened Def Con from 0.970059 to 0.970059
Heightened Def Con from 0.970059 to 0.970059
Heightened Def Con from 0.97006 to 0.97006
Heightened Def Con from 0.97006 to 0.97006
Heightened Def Con from 0.97006 to 0.97006
Heightened Def Con from 0.97006 to 0.97006
Heightened Def Con from 0.970061 to 0.970061
Heightened Def Con from 0.970061 to 0.970061
Heightened Def Con from 0.970061 to 0.970061
Heightened Def Con from 0.970061 to 0.970061
Heightened Def Con from 0.970061 to 0.970061
Heightened Def Con from 0.970061 to 0.970061
Heightened Def Con from 0.970061 to 0.970061
Heightened Def Con from 0.970061 to 0.970061
Heightened Def Con from 0.970061 to 0.970061
Heightened Def Con from 0.970062 to 0.970062
Heightened Def Con from 0.970062 to 0.970062
Heightened Def Con from 0.970062 to 0.970062
Heightened Def Con from 0.970062 to 0.970062
Heightened Def Con from 0.970062 to 0.970062
Heightened Def Con from 0.970062 to 0.970062
Heightened Def Con from 0.970062 to 0.970062
Heightened Def Con from 0.970062 to 0.970062
Heightened Def Con from 0.970062 to 0.970062
Heightened Def Con from 0.970062 to 0.970062
Heightened Def Con from 0.970063 to 0.970063
Heightened Def Con from 0.970063 to 0.970063
Heightened Def Con from 0.970063 to 0.970063
Heightened Def Con from 0.970063 to 0.970063
Heightened Def Con from 0.970063 to 0.970063
Heightened Def Con from 0.970064 to 0.970064
Heightened Def Con from 0.970064 to 0.970064
Heightened Def Con from 0.970064 to 0.970064
Heightened Def Con from 0.970064 to 0.970064
Heightened Def Con from 0.970064 to 0.970064
Heightened Def Con from 0.970064 to 0.970064
Heightened Def Con from 0.970064 to 0.970064
Heightened Def Con from 0.970064 to 0.970064
Heightened Def Con from 0.970064 to 0.970064
Heightened Def Con from 0.970064 to 0.970064
Heightened Def Con from 0.970064 to 0.970064
Heightened Def Con from 0.970065 to 0.970065
Heightened Def Con from 0.970065 to 0.970065
Heightened Def Con from 0.970065 to 0.970065
Heightened Def Con from 0.970065 to 0.970065
Heightened Def Con from 0.970065 to 0.970065
Heightened Def Con from 0.970065 to 0.970065
Heightened Def Con from 0.970065 to 0.970065
Heightened Def Con from 0.970065 to 0.970065
Heightened Def Con from 0.970065 to 0.970065
Heightened Def Con from 0.970066 to 0.970066
Heightened Def Con from 0.970066 to 0.970066
Heightened Def Con from 0.970066 to 0.970066
Heightened Def Con from 0.970066 to 0.970066
Heightened Def Con from 0.970066 to 0.970066
Heightened Def Con from 0.970066 to 0.970066
Heightened Def Con from 0.970066 to 0.970066
Heightened Def Con from 0.970066 to 0.970066
Heightened Def Con from 0.970066 to 0.970066
Heightened Def Con from 0.970066 to 0.970066
Heightened Def Con from 0.970066 to 0.970066
Heightened Def Con from 0.970066 to 0.970066
Heightened Def Con from 0.970067 to 0.970067
Heightened Def Con from 0.970067 to 0.970067
Heightened Def Con from 0.970067 to 0.970067
Heightened Def Con from 0.970067 to 0.970067
Heightened Def Con from 0.970067 to 0.970067
Heightened Def Con from 0.970068 to 0.970068
Heightened Def Con from 0.970068 to 0.970068
Heightened Def Con from 0.970068 to 0.970068
Heightened Def Con from 0.970068 to 0.970068
Heightened Def Con from 0.970069 to 0.970069
Heightened Def Con from 0.970069 to 0.970069
Heightened Def Con from 0.970069 to 0.970069
Heightened Def Con from 0.970069 to 0.970069
Heightened Def Con from 0.970069 to 0.970069
Heightened Def Con from 0.970069 to 0.970069
Heightened Def Con from 0.970069 to 0.970069
Heightened Def Con from 0.970069 to 0.970069
Heightened Def Con from 0.970073 to 0.970073
Heightened Def Con from 0.970073 to 0.970073
Heightened Def Con from 0.970073 to 0.970073
Heightened Def Con from 0.970074 to 0.970074
Heightened Def Con from 0.970074 to 0.970074
Heightened Def Con from 0.970074 to 0.970074
Heightened Def Con from 0.970074 to 0.970074
Heightened Def Con from 0.970075 to 0.970075
Heightened Def Con from 0.970075 to 0.970075
Heightened Def Con from 0.970075 to 0.970075
Heightened Def Con from 0.970075 to 0.970075
Heightened Def Con from 0.970075 to 0.970075
Heightened Def Con from 0.970075 to 0.970075
Heightened Def Con from 0.970075 to 0.970075
Heightened Def Con from 0.970076 to 0.970076
Heightened Def Con from 0.970076 to 0.970076
Heightened Def Con from 0.970076 to 0.970076
Heightened Def Con from 0.970076 to 0.970076
Heightened Def Con from 0.970076 to 0.970076
Heightened Def Con from 0.970077 to 0.970077
Heightened Def Con from 0.970077 to 0.970077
Heightened Def Con from 0.970077 to 0.970077
Heightened Def Con from 0.970077 to 0.970077
Heightened Def Con from 0.970077 to 0.970077
Heightened Def Con from 0.97964 to 0.97964
Heightened Def Con from 0.989722 to 0.989722
Heightened Def Con from 0.989848 +++to 0.989848
Heightened Def Con from 0.990066 to 0.990066
Heightened Def Con from 0.990066 to 0.990066
Heightened Def Con from 0.990066 to 0.990066
Heightened Def Con from 0.990066 to 0.990066
Heightened Def Con from 0.990067 to 0.990067
Heightened Def Con from 0.990067 to 0.990067
Heightened Def Con from 0.990067 to 0.990067
Heightened Def Con from 0.990067 to 0.990067
Heightened Def Con from 0.990067 to 0.990067
Heightened Def Con from 0.990067 to 0.990067
Heightened Def Con from 0.990067 to 0.990067
Heightened Def Con from 0.990068 to 0.990068
Heightened Def Con from 0.990068 to 0.990068
Heightened Def Con from 0.990068 to 0.990068
Heightened Def Con from 0.990068 to 0.990068
Heightened Def Con from 0.990068 to 0.990068
Heightened Def Con from 0.990068 to 0.990068
Heightened Def Con from 0.990068 to 0.990068
Heightened Def Con from 0.990068 to 0.990068
Heightened Def Con from 0.990068 to 0.990068
Heightened Def Con from 0.990069 to 0.990069
Heightened Def Con from 0.990069 to 0.990069
Heightened Def Con from 0.990069 to 0.990069
Heightened Def Con from 0.990069 to 0.990069
Heightened Def Con from 0.990069 to 0.990069
Heightened Def Con from 0.990069 to 0.990069
Heightened Def Con from 0.990069 to 0.990069
Heightened Def Con from 0.990069 to 0.990069
Heightened Def Con from 0.990069 to 0.990069
Heightened Def Con from 0.99007 to 0.99007
Heightened Def Con from 0.99007 to 0.99007
Heightened Def Con from 0.99007 to 0.99007
Heightened Def Con from 0.99007 to 0.99007
Heightened Def Con from 0.99007 to 0.99007
Heightened Def Con from 0.99007 to 0.99007
Heightened Def Con from 0.99007 to 0.99007
Heightened Def Con from 0.99007 to 0.99007
Heightened Def Con from 0.99007 to 0.99007
Heightened Def Con from 0.990071 to 0.990071
Heightened Def Con from 0.990071 to 0.990071
Heightened Def Con from 0.990071 to 0.990071
Heightened Def Con from 0.990071 to 0.990071
Heightened Def Con from 0.990071 to 0.990071
Heightened Def Con from 0.990071 to 0.990071
Heightened Def Con from 0.990071 to 0.990071
Heightened Def Con from 0.990071 to 0.990071
Heightened Def Con from 0.990072 to 0.990072
Heightened Def Con from 0.990072 to 0.990072
Heightened Def Con from 0.990072 to 0.990072
Heightened Def Con from 0.990072 to 0.990072
Heightened Def Con from 0.990072 to 0.990072
Heightened Def Con from 0.990072 to 0.990072
Heightened Def Con from 0.990072 to 0.990072
Heightened Def Con from 0.990072 to 0.990072
Heightened Def Con from 0.990072 to 0.990072
Heightened Def Con from 0.990072 to 0.990072
Heightened Def Con from 0.990073 to 0.990073
Heightened Def Con from 0.990073 to 0.990073
Heightened Def Con from 0.990073 to 0.990073
Heightened Def Con from 0.990073 to 0.990073
Heightened Def Con from 0.990073 to 0.990073
Heightened Def Con from 0.990073 to 0.990073
Heightened Def Con from 0.990073 to 0.990073
Heightened Def Con from 0.990073 to 0.990073
Heightened Def Con from 0.990074 to 0.990074
Heightened Def Con from 0.990074 to 0.990074
Heightened Def Con from 0.990074 to 0.990074
Heightened Def Con from 0.990074 to 0.990074
Heightened Def Con from 0.990074 to 0.990074
Heightened Def Con from 0.990074 to 0.990074
Heightened Def Con from 0.990075 to 0.990075
Heightened Def Con from 0.990075 to 0.990075
Heightened Def Con from 0.990075 to 0.990075
Heightened Def Con from 0.990075 to 0.990075
Heightened Def Con from 0.990075 to 0.990075
Heightened Def Con from 0.990075 to 0.990075
Heightened Def Con from 0.990075 to 0.990075
Heightened Def Con from 0.990075 to 0.990075
Heightened Def Con from 0.990076 to 0.990076
Heightened Def Con from 0.990076 to 0.990076
Heightened Def Con from 0.990076 to 0.990076
Heightened Def Con from 0.990076 to 0.990076
Heightened Def Con from 0.990076 to 0.990076
Heightened Def Con from 0.990076 to 0.990076
Heightened Def Con from 0.990076 to 0.990076
Heightened Def Con from 0.990076 to 0.990076
Heightened Def Con from 0.990076 to 0.990076
Heightened Def Con from 0.990077 to 0.990077
Heightened Def Con from 0.990077 to 0.990077
Heightened Def Con from 0.990077 to 0.990077
Heightened Def Con from 0.990077 to 0.990077
Heightened Def Con from 0.990077 to 0.990077
Heightened Def Con from 0.990077 to 0.990077
Heightened Def Con from 0.990077 to 0.990077
Heightened Def Con from 0.990077 to 0.990077
Heightened Def Con from 0.999599 +++++++++++++++++++++++to 0.999599
Heightened Def Con from 0.999848 to 0.999848

Date: Mon Sep 23 16:14:13 2019
Total elapsed time: 237.717 seconds.

tnom = 27
temp = 27
method = modified trap
totiter = 8858728
traniter = 8858728
tranpoints = 1805702
accept = 1292695
rejected = 519809
matrix size = 270
fillins = 343
solver = Normal
Thread vector: 19.2/10.8[7] 6.6/4.4[7] 4.3/5.8[1] 1.3/2.6[1]  2592/500
Matrix Compiler1: 32.87 KB object code size  8.7/3.7/[2.8]
Matrix Compiler2: 28.30 KB object code size  3.4/3.2/[2.1]


