Circuit: * H:\E-design344\LTspice\draft3.asc

Direct Newton iteration failed to find .op point.  (Use ".option noopiter" to skip.)
Starting Gmin stepping
Gmin = 10
Gmin = 1.07374
Gmin = 0.115292
Gmin = 0.0123794
Gmin = 0.00132923
vernier = 0.5
vernier = 0.25
vernier = 0.125
vernier = 0.0625
Gmin = 0.00100083
vernier = 0.03125
vernier = 0.015625
vernier = 0.0078125
vernier = 0.00390625
vernier = 0.00195313
Gmin = 0.00100083
vernier = 0.000976563
vernier = 0.000488281
Gmin = 0
Gmin stepping failed

Starting source stepping with srcstepmethod=0
Source Step = 3.0303%
vernier = 0.25
Source Step = 7.57576%
Source Step = 15.1515%
Source Step = 22.7273%
Source Step = 28.9773%
vernier = 0.015625
Source Step = 29.2614%
Source Step = 29.7348%
Source Step = 30.2083%
Source Step = 30.6818%
Source Step = 31.1553%
vernier = 0.0234375
Source Step = 31.8419%
Source Step = 32.5521%
Source Step = 33.2623%
Source Step = 33.9725%
Source Step = 34.6828%
vernier = 0.0351563
Source Step = 35.6771%
Source Step = 36.7424%
Source Step = 37.8078%
Source Step = 38.8731%
Source Step = 39.9384%
vernier = 0.0527344
Source Step = 41.3767%
Source Step = 42.9747%
Source Step = 44.5727%
Source Step = 46.1707%
Source Step = 47.1495%
Source Step = 47.2493%
Source Step = 47.3492%
Source Step = 47.4491%
Source Step = 47.549%
Source Step = 47.6489%
Source Step = 47.7487%
Source Step = 47.8486%
Source Step = 47.9485%
Source Step = 48.0484%
vernier = 0.00494385
Source Step = 48.1882%
Source Step = 48.338%
Source Step = 48.4878%
Source Step = 48.6376%
Source Step = 48.7874%
vernier = 0.00741577
Source Step = 48.9897%
Source Step = 49.2144%
Source Step = 49.4391%
Source Step = 49.6638%
Source Step = 49.8886%
vernier = 0.0111237
Source Step = 50.1807%
Source Step = 50.5178%
Source Step = 50.8549%
Source Step = 51.1919%
Source Step = 51.529%
vernier = 0.0166855
Source Step = 51.9504%
Source Step = 52.456%
Source Step = 52.9616%
Source Step = 53.4672%
Source Step = 53.9729%
vernier = 0.0250282
Source Step = 54.5796%
Source Step = 55.338%
Source Step = 56.0965%
Source Step = 56.8549%
Source Step = 57.6133%
vernier = 0.0375423
Source Step = 58.4855%
Source Step = 59.6232%
Source Step = 60.7608%
Source Step = 61.8985%
Source Step = 63.0361%
vernier = 0.0563135
Source Step = 64.2875%
Source Step = 65.994%
Source Step = 67.7005%
Source Step = 69.4069%
Source Step = 71.1134%
vernier = 0.0844703
Source Step = 72.9052%
Source Step = 75.4649%
Source Step = 78.0246%
Source Step = 80.5843%
Source Step = 83.144%
Source Step = 85.7037%
vernier = 0.126705
Source Step = 89.5433%
Source Step = 93.3828%
Source Step = 93.8028%
Source Step = 93.8628%
Source Step = 93.9228%
Source Step = 93.9828%
Source Step = 94.0428%
Source Step = 94.1028%
Source Step = 94.1627%
Source Step = 94.2227%
Source Step = 94.2827%
Source Step = 94.3427%
Source Step = 94.4027%
Source Step = 94.4627%
Source Step = 94.5227%
Source Step = 94.5827%
Source Step = 94.6427%
Source Step = 94.7027%
Source Step = 94.7627%
Source Step = 94.8227%
Source Step = 94.8827%
Source Step = 94.9427%
Source Step = 95.0027%
Source Step = 95.0626%
Source Step = 95.1226%
Source Step = 95.1826%
Source Step = 95.2426%
Source Step = 95.3026%
Source Step = 95.3626%
Source Step = 95.4226%
Source Step = 95.4826%
Source Step = 95.5426%
Source Step = 95.6026%
Source Step = 95.6626%
Source Step = 95.7226%
Source Step = 95.7826%
Source Step = 95.8426%
Source Step = 95.9025%
Source Step = 95.9625%
Source Step = 96.0225%
Source Step = 96.0825%
Source Step = 96.1425%
Source Step = 96.2025%
Source Step = 96.2625%
Source Step = 96.3225%
Source Step = 96.3825%
Source Step = 96.4425%
Source Step = 96.5025%
Source Step = 96.5625%
Source Step = 96.6225%
Source Step = 96.6825%
Source Step = 96.7424%
Source Step = 96.8024%
Source Step = 96.8624%
Source Step = 96.9224%
Source Step = 96.9824%
Source Step = 97.0424%
Source Step = 97.1024%
Source Step = 97.1624%
Source Step = 97.2224%
Source Step = 97.2824%
Source Step = 97.3424%
Source Step = 97.4024%
Source Step = 97.4624%
Source Step = 97.5224%
Source Step = 97.5824%
Source Step = 97.6423%
Source Step = 97.7023%
Source Step = 97.7623%
Source Step = 97.8223%
Source Step = 97.8823%
Source Step = 97.9423%
Source Step = 98.0023%
Source Step = 98.0623%
Source Step = 98.1223%
Source Step = 98.1823%
Source Step = 98.2423%
Source Step = 98.3023%
Source Step = 98.3623%
Source Step = 98.4223%
Source Step = 98.4822%
Source Step = 98.5422%
Source Step = 98.6022%
Source Step = 98.6622%
Source Step = 98.7222%
Source Step = 98.7822%
Source Step = 98.8422%
Source Step = 98.9022%
Source Step = 98.9622%
Source Step = 99.0222%
Source Step = 99.0822%
Source Step = 99.1422%
Source Step = 99.2022%
Source Step = 99.2622%
Source Step = 99.3222%
Source Step = 99.3821%
Source Step = 99.4421%
Source Step = 99.5021%
Source Step = 99.5621%
Source Step = 99.6221%
Source Step = 99.6821%
Source Step = 99.7421%
Source Step = 99.8021%
Starting source stepping with srcstepmethod=1
Source Step = 3.0303%
Source Step = 33.3333%
Source Step = 63.6364%
Source Step = 93.9394%
Source Step = 100%
vernier = 0.25
Source Step = 99.0059%
Source stepping failed

Pseudo transient terminated at 100.404 s, solution accepted ready or not!
Heightened Def Con from 0.00767767 to 0.00767767
Heightened Def Con from 0.00782831 to 0.00782831
Heightened Def Con from 0.00782896 to 0.00782896
Heightened Def Con from 0.0078297 to 0.0078297
Heightened Def Con from 0.0078302 to 0.0078302
Heightened Def Con from 0.00783052 to 0.00783052
Heightened Def Con from 0.00783078 to 0.00783078
Heightened Def Con from 0.00783141 to 0.00783141
Heightened Def Con from 0.00783184 to 0.00783184
Heightened Def Con from 0.00783203 +to 0.00783203
Heightened Def Con from 0.00783208 to 0.00783208
Heightened Def Con from 0.00783244 to 0.00783244
Heightened Def Con from 0.0220356 to 0.0220356
Heightened Def Con from 0.0262456 to 0.0262456
Heightened Def Con from 0.0264881 to 0.0264881
Heightened Def Con from 0.0264887 to 0.0264887
Heightened Def Con from 0.0264895 to 0.0264895
Heightened Def Con from 0.0264895 to 0.0264895
Heightened Def Con from 0.0264902 to 0.0264902
Heightened Def Con from 0.0264909 to 0.0264909
Heightened Def Con from 0.0264914 to 0.0264914
Heightened Def Con from 0.0264915 to 0.0264915
Heightened Def Con from 0.0264921 to 0.0264921
Heightened Def Con from 0.0264924 to 0.0264924
Heightened Def Con from 0.0264927 to 0.0264927
Heightened Def Con from 0.0264928 to 0.0264928
Heightened Def Con from 0.0264928 +to 0.0264928
Heightened Def Con from 0.0264929 to 0.0264929
Heightened Def Con from 0.0264932 to 0.0264932
Heightened Def Con from 0.043399 to 0.043399
Heightened Def Con from 0.0462333 to 0.0462333
Heightened Def Con from 0.0462334 to 0.0462334
Heightened Def Con from 0.0462338 to 0.0462338
Heightened Def Con from 0.046234 to 0.046234
Heightened Def Con from 0.0462343 to 0.0462343
Heightened Def Con from 0.0462346 to 0.0462346
Heightened Def Con from 0.046236 to 0.046236
Heightened Def Con from 0.046236 to 0.046236
Heightened Def Con from 0.0462362 to 0.0462362
Heightened Def Con from 0.0462373 to 0.0462373
Heightened Def Con from 0.0462378 to 0.0462378
Heightened Def Con from 0.0462384 to 0.0462384
Heightened Def Con from 0.0462391 to 0.0462391
Heightened Def Con from 0.0462391 to 0.0462391
Heightened Def Con from 0.0828806 to 0.0828806
Heightened Def Con from 0.0872396 to 0.0872396
Heightened Def Con from 0.0872397 to 0.0872397
Heightened Def Con from 0.102849 to 0.102849
Heightened Def Con from 0.107237 to 0.107237
Heightened Def Con from 0.122864 to 0.122864
Heightened Def Con from 0.122897 to 0.122897
Heightened Def Con from 0.142883 to 0.142883
Heightened Def Con from 0.147237 to 0.147237
Heightened Def Con from 0.161896 to 0.161896
Heightened Def Con from 0.163524 to 0.163524
Heightened Def Con from 0.167239 to 0.167239
Heightened Def Con from 0.183255 +to 0.183255
Heightened Def Con from 0.187237 to 0.187237

Date: Tue Oct 15 20:49:03 2019
Total elapsed time: 12.804 seconds.

tnom = 27
temp = 27
method = modified trap
totiter = 275628
traniter = 194957
tranpoints = 52851
accept = 38103
rejected = 14889
matrix size = 139
fillins = 249
solver = Normal
Thread vector: 14.9/12.4[3] 2.3/1.2[3] 3.2/2.6[3] 1.2/18.8[1]  2592/500
Matrix Compiler1: 21.00 KB object code size  5.3/2.6/[1.4]
Matrix Compiler2: 15.75 KB object code size  2.1/3.5/[1.2]

