Circuit: * H:\E-design344\LTspice\Draft7.asc

Direct Newton iteration for .op point succeeded.

Date: Mon Oct 21 17:53:32 2019
Total elapsed time: 0.390 seconds.

tnom = 27
temp = 27
method = modified trap
totiter = 86496
traniter = 86490
tranpoints = 32240
accept = 23405
rejected = 8835
matrix size = 6
fillins = 0
solver = Normal
Matrix Compiler1: 360 bytes object code size  0.2/0.1/[0.0]
Matrix Compiler2: 462 bytes object code size  0.1/0.1/[0.1]


