Circuit: * H:\E-design 344\LTspice\Draft2.asc

Direct Newton iteration for .op point succeeded.

Date: Fri Sep 20 15:47:49 2019
Total elapsed time: 34.891 seconds.

tnom = 27
temp = 27
method = modified trap
totiter = 6974970
traniter = 6974951
tranpoints = 2436303
accept = 1856389
rejected = 579914
matrix size = 13
fillins = 0
solver = Normal
Matrix Compiler1: 656 bytes object code size  0.3/0.1/[0.0]
Matrix Compiler2: off  [0.1]/0.1/0.1


